/*
 <DUALSPHYSICS>  Copyright (c) 2015, Jose M. Dominguez et al. (see http://dual.sphysics.org/index.php/developers/). 

 EPHYSLAB Environmental Physics Laboratory, Universidade de Vigo, Ourense, Spain.
 School of Mechanical, Aerospace and Civil Engineering, University of Manchester, Manchester, U.K.

 This file is part of DualSPHysics. 

 DualSPHysics is free software: you can redistribute it and/or modify it under the terms of the GNU General Public License as published by
 the Free Software Foundation, either version 3 of the License, or (at your option) any later version. 

 DualSPHysics is distributed in the hope that it will be useful, but WITHOUT ANY WARRANTY; without even the implied warranty of
 MERCHANTABILITY or FITNESS FOR A PARTICULAR PURPOSE.  See the GNU General Public License for more details. 

 You should have received a copy of the GNU General Public License, along with DualSPHysics. If not, see <http://www.gnu.org/licenses/>. 
*/

#include "JSphGpu_ker.h"
#include <float.h>
#include "JLog2.h"
#include <math_constants.h>
//#include "JDgKerPrint.h"
//#include "JDgKerPrint_ker.h"

#pragma warning(disable : 4267) //Cancels "warning C4267: conversion from 'size_t' to 'int', possible loss of data"
#pragma warning(disable : 4244) //Cancels "warning C4244: conversion from 'unsigned __int64' to 'unsigned int', possible loss of data"
#include <thrust/device_vector.h>
#include <thrust/sort.h>

#include <iostream>
#include <cstdlib>
#include <string>
#include <cuda.h>

#define VIENNACL_WITH_CUDA
#include "viennacl/vector.hpp"
#include "viennacl/compressed_matrix.hpp"
#include "viennacl/linalg/bicgstab.hpp"
#include "viennacl/linalg/gmres.hpp"
#include "viennacl/tools/timer.hpp"
#include "viennacl/linalg/norm_2.hpp"
#include "viennacl/linalg/jacobi_precond.hpp"
#include "viennacl/forwards.h"
#include "viennacl/linalg/amg.hpp"
#include "viennacl/linalg/prod.hpp"

__constant__ StCteInteraction CTE;

namespace cusph{
  
//==============================================================================
/// Comprueba error y finaliza ejecucion.
/// Checks mistake and ends execution.
//==============================================================================
#define CheckErrorCuda(text)  __CheckErrorCuda(text,__FILE__,__LINE__)
void __CheckErrorCuda(const char *text,const char *file,const int line){
  cudaError_t err=cudaGetLastError();
  if(cudaSuccess!=err){
    char cad[2048]; 
    sprintf(cad,"%s (CUDA error: %s -> %s:%i).\n",text,cudaGetErrorString(err),file,line); 
    throw std::string(cad);
  }
}

//==============================================================================
/// Devuelve tamaño de gridsize segun parametros.
/// Returns size of gridsize according to parameters.
//==============================================================================
dim3 GetGridSize(unsigned n,unsigned blocksize){
  dim3 sgrid;//=dim3(1,2,3);
  unsigned nb=unsigned(n+blocksize-1)/blocksize;//-Numero total de bloques a lanzar. //-Total block number to throw.
  sgrid.x=(nb<=65535? nb: unsigned(sqrt(float(nb))));
  sgrid.y=(nb<=65535? 1: unsigned((nb+sgrid.x-1)/sgrid.x));
  sgrid.z=1;
  return(sgrid);
}

//==============================================================================
/// Reduccion mediante maximo de valores float en memoria shared para un warp.
/// Reduction using maximum of float values in shared memory for a warp.
//==============================================================================
template <unsigned blockSize> __device__ void KerReduMaxFloatWarp(volatile float* sdat,unsigned tid) {
  if(blockSize>=64)sdat[tid]=max(sdat[tid],sdat[tid+32]);
  if(blockSize>=32)sdat[tid]=max(sdat[tid],sdat[tid+16]);
  if(blockSize>=16)sdat[tid]=max(sdat[tid],sdat[tid+8]);
  if(blockSize>=8)sdat[tid]=max(sdat[tid],sdat[tid+4]);
  if(blockSize>=4)sdat[tid]=max(sdat[tid],sdat[tid+2]);
  if(blockSize>=2)sdat[tid]=max(sdat[tid],sdat[tid+1]);
}

//==============================================================================
/// ES:
/// Acumula la suma de n valores del vector dat[], guardando el resultado al 
/// principio de res[] (Se usan tantas posiciones del res[] como bloques, 
/// quedando el resultado final en res[0]).
/// - EN:
/// Accumulates the sum of n values of array dat[], storing the result in 
/// the beginning of res[].(Many positions of res[] are used as blocks, 
/// storing the final result in res[0]).
//==============================================================================
template <unsigned blockSize> __global__ void KerReduMaxFloat(unsigned n,unsigned ini,const float *dat,float *res){
  extern __shared__ float sdat[];
  unsigned tid=threadIdx.x;
  unsigned c=blockIdx.y*gridDim.x*blockDim.x + blockIdx.x*blockDim.x + threadIdx.x;
  sdat[tid]=(c<n? dat[c+ini]: -FLT_MAX);
  __syncthreads();
  if(blockSize>=512){ if(tid<256)sdat[tid]=max(sdat[tid],sdat[tid+256]);  __syncthreads(); }
  if(blockSize>=256){ if(tid<128)sdat[tid]=max(sdat[tid],sdat[tid+128]);  __syncthreads(); }
  if(blockSize>=128){ if(tid<64) sdat[tid]=max(sdat[tid],sdat[tid+64]);   __syncthreads(); }
  if(tid<32)KerReduMaxFloatWarp<blockSize>(sdat,tid);
  if(tid==0)res[blockIdx.y*gridDim.x + blockIdx.x]=sdat[0];
}

//==============================================================================
/// ES:
/// Devuelve el maximo de un vector, usando resu[] como vector auxiliar. El tamaño
/// de resu[] debe ser >= a (N/SPHBSIZE+1)+(N/(SPHBSIZE*SPHBSIZE)+SPHBSIZE)
/// - EN:
/// Returns the maximum of an array, using resu[] as auxiliar array.
/// Size of resu[] must be >= a (N/SPHBSIZE+1)+(N/(SPHBSIZE*SPHBSIZE)+SPHBSIZE)
//==============================================================================
float ReduMaxFloat(unsigned ndata,unsigned inidata,float* data,float* resu){
  unsigned n=ndata,ini=inidata;
  unsigned smemSize=SPHBSIZE*sizeof(float);
  dim3 sgrid=GetGridSize(n,SPHBSIZE);
  unsigned n_blocks=sgrid.x*sgrid.y;
  float *dat=data;
  float *resu1=resu,*resu2=resu+n_blocks;
  float *res=resu1;
  while(n>1){
    KerReduMaxFloat<SPHBSIZE><<<sgrid,SPHBSIZE,smemSize>>>(n,ini,dat,res);
    n=n_blocks; ini=0;
    sgrid=GetGridSize(n,SPHBSIZE);  
    n_blocks=sgrid.x*sgrid.y;
    if(n>1){
      dat=res; res=(dat==resu1? resu2: resu1); 
    }
  }
  float resf;
  if(ndata>1)cudaMemcpy(&resf,res,sizeof(float),cudaMemcpyDeviceToHost);
  else cudaMemcpy(&resf,data,sizeof(float),cudaMemcpyDeviceToHost);
  return(resf);
}

//==============================================================================
/// ES:
/// Acumula la suma de n valores del vector dat[].w, guardando el resultado al 
/// principio de res[] (Se usan tantas posiciones del res[] como bloques, 
/// quedando el resultado final en res[0]).
/// - EN:
/// Accumulates the sum of n values of array dat[], storing the result in 
/// the beginning of res[].(Many positions of res[] are used as blocks, 
/// storing the final result in res[0]).
//==============================================================================
template <unsigned blockSize> __global__ void KerReduMaxFloat_w(unsigned n,unsigned ini,const float4 *dat,float *res){
  extern __shared__ float sdat[];
  unsigned tid=threadIdx.x;
  unsigned c=blockIdx.y*gridDim.x*blockDim.x + blockIdx.x*blockDim.x + threadIdx.x;
  sdat[tid]=(c<n? dat[c+ini].w: -FLT_MAX);
  __syncthreads();
  if(blockSize>=512){ if(tid<256)sdat[tid]=max(sdat[tid],sdat[tid+256]);  __syncthreads(); }
  if(blockSize>=256){ if(tid<128)sdat[tid]=max(sdat[tid],sdat[tid+128]);  __syncthreads(); }
  if(blockSize>=128){ if(tid<64) sdat[tid]=max(sdat[tid],sdat[tid+64]);   __syncthreads(); }
  if(tid<32)KerReduMaxFloatWarp<blockSize>(sdat,tid);
  if(tid==0)res[blockIdx.y*gridDim.x + blockIdx.x]=sdat[0];
}

//==============================================================================
/// ES:
/// Devuelve el maximo de la componente w de un vector float4, usando resu[] como 
/// vector auxiliar. El tamaño de resu[] debe ser >= a (N/SPHBSIZE+1)+(N/(SPHBSIZE*SPHBSIZE)+SPHBSIZE)
/// - EN:
/// Returns the maximum of an array, using resu[] as auxiliar array.
/// Size of resu[] must be >= a (N/SPHBSIZE+1)+(N/(SPHBSIZE*SPHBSIZE)+SPHBSIZE)
//==============================================================================
float ReduMaxFloat_w(unsigned ndata,unsigned inidata,float4* data,float* resu){
  unsigned n=ndata,ini=inidata;
  unsigned smemSize=SPHBSIZE*sizeof(float);
  dim3 sgrid=GetGridSize(n,SPHBSIZE);
  unsigned n_blocks=sgrid.x*sgrid.y;
  float *dat=NULL;
  float *resu1=resu,*resu2=resu+n_blocks;
  float *res=resu1;
  while(n>1){
    if(!dat)KerReduMaxFloat_w<SPHBSIZE><<<sgrid,SPHBSIZE,smemSize>>>(n,ini,data,res);
    else KerReduMaxFloat<SPHBSIZE><<<sgrid,SPHBSIZE,smemSize>>>(n,ini,dat,res);
    n=n_blocks; ini=0;
    sgrid=GetGridSize(n,SPHBSIZE);  
    n_blocks=sgrid.x*sgrid.y;
    if(n>1){
      dat=res; res=(dat==resu1? resu2: resu1); 
    }
  }
  float resf;
  if(ndata>1)cudaMemcpy(&resf,res,sizeof(float),cudaMemcpyDeviceToHost);
  else{
    float4 resf4;
    cudaMemcpy(&resf4,data,sizeof(float4),cudaMemcpyDeviceToHost);
    resf=resf4.w;
  }
  return(resf);
}

//==============================================================================
/// Graba constantes para la interaccion a la GPU.
/// Stores constants for the GPU interaction.
//==============================================================================
void CteInteractionUp(const StCteInteraction *cte){
  cudaMemcpyToSymbol(CTE,cte,sizeof(StCteInteraction));
}

//------------------------------------------------------------------------------
/// Inicializa array con el valor indicado.
/// Initialises array with the indicated value.
//------------------------------------------------------------------------------
__global__ void KerInitArray(unsigned n,float3 *v,float3 value)
{
  unsigned p=blockIdx.y*gridDim.x*blockDim.x + blockIdx.x*blockDim.x + threadIdx.x; //-Nº de la particula //-NI of the particle
  if(p<n)v[p]=value;
}

//==============================================================================
/// Inicializa array con el valor indicado.
/// Initialises array with the indicated value.
//==============================================================================
void InitArray(unsigned n,float3 *v,tfloat3 value){
  if(n){
    dim3 sgrid=GetGridSize(n,SPHBSIZE);
    KerInitArray <<<sgrid,SPHBSIZE>>> (n,v,Float3(value));
  }
}

//------------------------------------------------------------------------------
/// Pone v[].y a cero.
/// Sets v[].y to zero.
//------------------------------------------------------------------------------
__global__ void KerResety(unsigned n,unsigned ini,float3 *v)
{
  unsigned p=blockIdx.y*gridDim.x*blockDim.x + blockIdx.x*blockDim.x + threadIdx.x; //-Nº de la partícula //-NI of the particle
  if(p<n)v[p+ini].y=0;
}

//==============================================================================
// Pone v[].y a cero.
/// Sets v[].y to zero.
//==============================================================================
void Resety(unsigned n,unsigned ini,float3 *v){
  if(n){
    dim3 sgrid=GetGridSize(n,SPHBSIZE);
    KerResety <<<sgrid,SPHBSIZE>>> (n,ini,v);
  }
}

//------------------------------------------------------------------------------
/// Calculates module^2 of ace.
//------------------------------------------------------------------------------
__global__ void KerComputeAceMod(unsigned n,const float3 *ace,float *acemod)
{
  unsigned p=blockIdx.y*gridDim.x*blockDim.x + blockIdx.x*blockDim.x + threadIdx.x; //-Number of particle.
  if(p<n){
    const float3 r=ace[p];
    acemod[p]=r.x*r.x+r.y*r.y+r.z*r.z;
  }
}

//==============================================================================
/// Calculates module^2 of ace.
//==============================================================================
void ComputeAceMod(unsigned n,const float3 *ace,float *acemod){
  if(n){
    dim3 sgrid=GetGridSize(n,SPHBSIZE);
    KerComputeAceMod <<<sgrid,SPHBSIZE>>> (n,ace,acemod);
  }
}

//------------------------------------------------------------------------------
/// Calculates module^2 of ace, comprobando que la particula sea normal.
//------------------------------------------------------------------------------
__global__ void KerComputeAceMod(unsigned n,const word *code,const float3 *ace,float *acemod)
{
  unsigned p=blockIdx.y*gridDim.x*blockDim.x + blockIdx.x*blockDim.x + threadIdx.x; //-Number of particle.
  if(p<n){
    const float3 r=(CODE_GetSpecialValue(code[p])==CODE_NORMAL? ace[p]: make_float3(0,0,0));
    acemod[p]=r.x*r.x+r.y*r.y+r.z*r.z;
  }
}

//==============================================================================
/// Calculates module^2 of ace, comprobando que la particula sea normal.
//==============================================================================
void ComputeAceMod(unsigned n,const word *code,const float3 *ace,float *acemod){
  if(n){
    dim3 sgrid=GetGridSize(n,SPHBSIZE);
    KerComputeAceMod <<<sgrid,SPHBSIZE>>> (n,code,ace,acemod);
  }
}


//##############################################################################
//# Otros kernels...
//# Other kernels...
//##############################################################################
//------------------------------------------------------------------------------
/// Calculates module^2 of vel.
//------------------------------------------------------------------------------
__global__ void KerComputeVelMod(unsigned n,const float4 *vel,float *velmod)
{
  unsigned p=blockIdx.y*gridDim.x*blockDim.x + blockIdx.x*blockDim.x + threadIdx.x; //-Number of particle.
  if(p<n){
    const float4 r=vel[p];
    velmod[p]=r.x*r.x+r.y*r.y+r.z*r.z;
  }
}

//==============================================================================
/// Calculates module^2 of vel.
//==============================================================================
void ComputeVelMod(unsigned n,const float4 *vel,float *velmod){
  if(n){
    dim3 sgrid=GetGridSize(n,SPHBSIZE);
    KerComputeVelMod <<<sgrid,SPHBSIZE>>> (n,vel,velmod);
  }
}


//##############################################################################
//# Kernels para preparar calculo de fuerzas con Pos-Simple.
//# Kernels for preparing force computation with Pos-Simple.
//##############################################################################
//------------------------------------------------------------------------------
/// Prepara variables para interaccion pos-simple.
/// Prepare variables for pos-simple interaction.
//------------------------------------------------------------------------------
__global__ void KerPreInteractionSimple(unsigned n,const double2 *posxy,const double *posz
  ,const float4 *velrhop,float4 *pospress,float cteb,float gamma)
{
  unsigned p=blockIdx.y*gridDim.x*blockDim.x + blockIdx.x*blockDim.x + threadIdx.x; //-Nº de la partícula
  if(p<n){
    //Calcular press en simple o doble precision no parece tener ningun efecto positivo significativo,
    //y como para PosDouble si se calcula antes y se lee en la interaccion supondria una perdida de 
    //rendimiento del 6% o 15% (gtx480 o k20c) mejor se calcula en simple siempre.
	//Computes press in single or double precision,although the latter does not have any significant positive effect,
    //and like PosDouble if it is previously calculated and read the interaction can incur losses of
    //performance of 6% or 15% (GTX480 or k20c) so it is best calculated as always simple.
    const float rrhop=velrhop[p].w;
    float press=cteb*(powf(rrhop*CTE.ovrhopzero,gamma)-1.0f);
    double2 rpos=posxy[p];
    pospress[p]=make_float4(float(rpos.x),float(rpos.y),float(posz[p]),press);
  }
}

//==============================================================================
/// Prepara variables para interaccion pos-simple.
/// Prepare variables for pos-simple interaction.
//==============================================================================
void PreInteractionSimple(unsigned np,const double2 *posxy,const double *posz
  ,const float4 *velrhop,float4 *pospress,float cteb,float ctegamma)
{
  if(np){
    dim3 sgrid=GetGridSize(np,SPHBSIZE);
    KerPreInteractionSimple <<<sgrid,SPHBSIZE>>> (np,posxy,posz,velrhop,pospress,cteb,ctegamma);
  }
}


//##############################################################################
//# Kernels auxiliares para interaccion.
//# Auxiliary kernels for the interaction.
//##############################################################################
//------------------------------------------------------------------------------
/// Devuelve posicion y vel de particula.
/// Returns postion and vel of a particle.
//------------------------------------------------------------------------------
__device__ void KerGetParticleData(unsigned p1
  ,const double2 *posxy,const double *posz,const float4 *velrhop
  ,float3 &velp1,double3 &posdp1)
{
  float4 r=velrhop[p1];
  velp1=make_float3(r.x,r.y,r.z);

  double2 pxy=posxy[p1];
  posdp1=make_double3(pxy.x,pxy.y,posz[p1]);
}

//------------------------------------------------------------------------------
/// Devuelve drx, dry y drz entre dos particulas.
/// Returns drx, dry and drz between the particles.
//------------------------------------------------------------------------------
__device__ void KerGetParticlesDr(int p2
  ,const double2 *posxy,const double *posz,const double3 &posdp1
  ,float &drx,float &dry,float &drz)
{
  double2 posp2=posxy[p2];
  drx=float(posdp1.x-posp2.x);
  dry=float(posdp1.y-posp2.y);
  drz=float(posdp1.z-posz[p2]);
}

//------------------------------------------------------------------------------
/// Devuelve limites de celdas para interaccion.
/// Returns cell limits for the interaction.
//------------------------------------------------------------------------------
__device__ void KerGetInteractionCells(unsigned rcell
  ,int hdiv,const uint4 &nc,const int3 &cellzero
  ,int &cxini,int &cxfin,int &yini,int &yfin,int &zini,int &zfin)
{
  //-Obtiene limites de interaccion
  //-Obtains interaction limits.
  const int cx=PC__Cellx(CTE.cellcode,rcell)-cellzero.x;
  const int cy=PC__Celly(CTE.cellcode,rcell)-cellzero.y;
  const int cz=PC__Cellz(CTE.cellcode,rcell)-cellzero.z;
  //-Codigo para hdiv 1 o 2 pero no cero.
  //-Code for hdiv 1 or 2 but not zero.
  cxini=cx-min(cx,hdiv);
  cxfin=cx+min(nc.x-cx-1,hdiv)+1;
  yini=cy-min(cy,hdiv);
  yfin=cy+min(nc.y-cy-1,hdiv)+1;
  zini=cz-min(cz,hdiv);
  zfin=cz+min(nc.z-cz-1,hdiv)+1;
}

//------------------------------------------------------------------------------
/// Devuelve limites de celdas para interaccion.
/// Returns cell limits for the interaction.
//------------------------------------------------------------------------------
__device__ void KerGetInteractionCells(double px,double py,double pz
  ,int hdiv,const uint4 &nc,const int3 &cellzero
  ,int &cxini,int &cxfin,int &yini,int &yfin,int &zini,int &zfin)
{
  //-Obtiene limites de interaccion
  //-Obtains interaction limits.
  const int cx=int((px-CTE.domposminx)/CTE.scell)-cellzero.x;
  const int cy=int((py-CTE.domposminy)/CTE.scell)-cellzero.y;
  const int cz=int((pz-CTE.domposminz)/CTE.scell)-cellzero.z;
  //-Codigo para hdiv 1 o 2 pero no cero.
  //-Code for hdiv 1 or 2 but not zero.
  cxini=cx-min(cx,hdiv);
  cxfin=cx+min(nc.x-cx-1,hdiv)+1;
  yini=cy-min(cy,hdiv);
  yfin=cy+min(nc.y-cy-1,hdiv)+1;
  zini=cz-min(cz,hdiv);
  zfin=cz+min(nc.z-cz-1,hdiv)+1;
}

//------------------------------------------------------------------------------
/// Devuelve valores de kernel: frx, fry y frz. USADA
/// Returns kernel values: frx, fry and frz. USED
//------------------------------------------------------------------------------
__device__ void KerGetKernel(float rr2,float drx,float dry,float drz
  ,float &frx,float &fry,float &frz)
{
  const float rad=sqrt(rr2);
  const float qq=rad/CTE.h;
  
  //-Wendland kernel.
  const float wqq1=1.f-0.5f*qq;
  const float fac=CTE.bwen*qq*wqq1*wqq1*wqq1/rad;
  frx=fac*drx; fry=fac*dry; frz=fac*drz;
}

//------------------------------------------------------------------------------
/// Devuelve valores de kernel: wab.
/// returns kernel values: wab.
//------------------------------------------------------------------------------
__device__ float KerGetKernelWab(float rr2)
{
  const float rad=sqrt(rr2);
  const float qq=rad/CTE.h;

  //-Wendland kernel.
  const float wqq=2.f*qq+1.f;
  const float wqq1=1.f-0.5f*qq;
  const float wqq2=wqq1*wqq1;

  return(CTE.awen*wqq*wqq2*wqq2);
}


//------------------------------------------------------------------------------
/// Parallel matrix order kernels
//------------------------------------------------------------------------------
__global__ void KerMatrixOrderFluid
  (unsigned npf,unsigned npb,unsigned *porder,const unsigned *index)
{
  unsigned p=blockIdx.y*gridDim.x*blockDim.x + blockIdx.x*blockDim.x + threadIdx.x; //-Nº de la partícula //-NI of particle.
  if(p<npf){
    const unsigned matrixboundary=index[0]-npf;
    unsigned p1=p+npb;
    porder[p1]=matrixboundary+p;
  }
}

__device__ void KerMatrixOrderDummyCalc
  (unsigned p1,const unsigned &pini,const unsigned &pfin,const word *code,const unsigned *idp,unsigned idpg1,int irelationg1,unsigned *porder)
{
  for(int p2=pini;p2<pfin;p2++)if(irelationg1==idp[p2])porder[p1]=porder[p2];
}

__global__ void KerMatrixOrderDummy
  (unsigned np,unsigned n,int hdiv,uint4 nc,const int2 *begincell,int3 cellzero,const unsigned *dcell
  ,const word *code,const unsigned *idp,const int *irelationg,unsigned *porder)
{
  unsigned p1=blockIdx.y*gridDim.x*blockDim.x + blockIdx.x*blockDim.x + threadIdx.x; //-Nº de la partícula //-NI of particle.
  if(p1<n){
    if(CODE_GetTypeValue(code[p1])==1){
      porder[p1]=np;
      //-Carga datos de particula p1.
	    //-Loads particle p1 data.
      unsigned idpg1=idp[p1];
      unsigned irelationg1=irelationg[idpg1];
      //-Obtiene limites de interaccion
	    //-Obtains interaction limits
      int cxini,cxfin,yini,yfin,zini,zfin;
      KerGetInteractionCells(dcell[p1],hdiv,nc,cellzero,cxini,cxfin,yini,yfin,zini,zfin);

      //-Interaccion de Contorno con Fluidas.
	    //-Boundary-Bound interaction.
      for(int z=zini;z<zfin;z++){
        int zmod=(nc.w)*z;
        for(int y=yini;y<yfin;y++){
          int ymod=zmod+nc.x*y;
          unsigned pini,pfin=0;
          for(int x=cxini;x<cxfin;x++){
            int2 cbeg=begincell[x+ymod];
            if(cbeg.y){
              if(!pfin)pini=cbeg.x;
              pfin=cbeg.y;
            }
          }
          if(pfin)KerMatrixOrderDummyCalc(p1,pini,pfin,code,idp,idpg1,irelationg1,porder);
        }
      }
    }
  }
}

//------------------------------------------------------------------------------
///  Inverse Kernel Correction Matrix
//------------------------------------------------------------------------------
__global__ void KerInverseKernelCor2D(unsigned n,unsigned pinit,double3 *dwxcorrg,double3 *dwzcorrg,const word *code)
{
  unsigned p=blockIdx.y*gridDim.x*blockDim.x + blockIdx.x*blockDim.x + threadIdx.x; //-Nº de la partícula //-NI of the particle
  if(p<n){
    unsigned p1=p+pinit;      //-Nº de particula. //-NI of particle
    if(CODE_GetTypeValue(code[p1])!=1){
      const double det=1.0/(dwxcorrg[p1].x*dwzcorrg[p1].z-dwxcorrg[p1].z*dwzcorrg[p1].x);

      if(det){
	      const double temp=dwxcorrg[p1].x;
        dwxcorrg[p1].x=dwzcorrg[p1].z*det;
	      dwxcorrg[p1].z=-dwxcorrg[p1].z*det; 
	      dwzcorrg[p1].x=-dwzcorrg[p1].x*det;
	      dwzcorrg[p1].z=temp*det;
      }
    }
  }
}

__global__ void KerInverseKernelCor3D(unsigned n,unsigned pinit,double3 *dwxcorrg,double3 *dwycorrg,double3 *dwzcorrg,const word *code)
{
  unsigned p=blockIdx.y*gridDim.x*blockDim.x + blockIdx.x*blockDim.x + threadIdx.x; //-Nº de la partícula //-NI of the particle
  if(p<n){
    unsigned p1=p+pinit;      //-Nº de particula. //-NI of particle
    if(CODE_GetTypeValue(code[p1])!=1){
      double3 dwx=dwxcorrg[p1]; //  dwx.x   dwx.y   dwx.z
			double3 dwy=dwycorrg[p1]; //  dwy.x   dwy.y   dwy.z
			double3 dwz=dwzcorrg[p1]; //  dwz.x   dwz.y   dwz.z

			double det=dwx.x*(dwy.y*dwz.z-dwz.y*dwy.z) + dwx.y*(dwy.x*dwz.z-dwz.x*dwy.z)+dwx.z*(dwy.x*dwz.y-dwz.x*dwy.y);

			dwxcorrg[p1].x=(dwy.y*dwz.z-dwz.y*dwy.z)/det;
			dwxcorrg[p1].y=-(dwx.y*dwz.z-dwz.y*dwx.z)/det;
			dwxcorrg[p1].z=(dwx.y*dwy.z-dwy.y*dwx.z)/det;
			dwycorrg[p1].x=-(dwy.x*dwz.z-dwz.x*dwy.z)/det;
			dwycorrg[p1].y=(dwx.x*dwz.z-dwz.x*dwx.z)/det;
			dwycorrg[p1].z=-(dwx.x*dwy.z-dwy.x*dwx.z)/det;
			dwzcorrg[p1].x=(dwy.x*dwz.y-dwz.x*dwy.y)/det;
			dwzcorrg[p1].y=-(dwx.x*dwz.y-dwz.x*dwx.y)/det;
			dwzcorrg[p1].z=(dwx.x*dwz.y-dwz.x*dwy.x)/det;
    }
  }
}

//##############################################################################
//# Kernels para calculo de fuerzas (Pos-Double)
//# Kernels for calculating forces (Pos-Double)
//##############################################################################
//------------------------------------------------------------------------------
/// Realiza la interaccion de una particula con un conjunto de ellas. Bound-Fluid/Float
/// Interaction of a particle with a set of particles (Bound-Fluid).
//------------------------------------------------------------------------------
template<TpFtMode ftmode> __device__ void KerInteractionForcesBoundBound
  (const unsigned &pini,const unsigned &pfin
  ,const float *ftomassp,const double2 *posxy,const double *posz,float4 *velrhop,const word *code,const unsigned* idp
  ,float massb,double3 posdp1,float3 velp1,double3 &dwxp1,double3 &dwyp1,double3 &dwzp1,float &divrp1,const unsigned codep1,float3 &wallVelocity)
{
	const float volume=massb/CTE.rhopzero;
  for(int p2=pini;p2<pfin;p2++){
    float drx,dry,drz;
    KerGetParticlesDr(p2,posxy,posz,posdp1,drx,dry,drz);
    const float rr2=drx*drx+dry*dry+drz*drz;
    if(rr2<=CTE.fourh2 && rr2>=ALMOSTZERO){
			if(CODE_GetTypeValue(code[p2])==2){
				wallVelocity.x=velrhop[p2].x;
				wallVelocity.y=velrhop[p2].y;
				wallVelocity.z=velrhop[p2].z;
			}

      //-Wendland kernel
      float frx,fry,frz;
      KerGetKernel(rr2,drx,dry,drz,frx,fry,frz);

			const float rDivW=drx*frx+dry*fry+drz*frz;//R.Div(W)
			divrp1-=volume*rDivW;

			dwxp1.x-=volume*frx*drx; dwxp1.y-=volume*fry*drx; dwxp1.z-=volume*frz*drx;
			dwyp1.x-=volume*frx*dry; dwyp1.y-=volume*fry*dry; dwyp1.z-=volume*frz*dry;
			dwzp1.x-=volume*frx*drz; dwzp1.y-=volume*fry*drz; dwzp1.z-=volume*frz*drz;

      //-Obtiene masa de particula p2 en caso de existir floatings.
	  //-Obtains particle mass p2 if there are floating bodies.
     // float ftmassp2;    //-Contiene masa de particula floating o massf si es fluid. //-Contains mass of floating body or massf if fluid.
 
			// bool compute=true; //-Se desactiva cuando se usa DEM y es float-float o float-bound. //-Deactivated when DEM is used and is float-float or float-bound.
     /* if(USE_FLOATING){
        const word cod=code[p2];
        bool ftp2=(CODE_GetType(cod)==CODE_TYPE_FLOATING);
        ftmassp2=(ftp2? ftomassp[CODE_GetTypeValue(cod)]: massf);
        compute=!(USE_DEM && ftp2); //-Se desactiva cuando se usa DEM y es bound-float. //-Deactivated when DEM is used and is bound-float.
      }*/
    }
  }
}

template<TpFtMode ftmode> __device__ void KerInteractionForcesBoundFluid
  (const unsigned &pini,const unsigned &pfin
  ,const float *ftomassp,const double2 *posxy,const double *posz,float4 *velrhop,const word *code,const unsigned* idp
  ,float massf,double3 posdp1,float3 velp1,double3 &dwxp1,double3 &dwyp1,double3 &dwzp1,float &divrp1,const unsigned codep1)
{
	const float volume=massf/CTE.rhopzero;
  for(int p2=pini;p2<pfin;p2++){
    float drx,dry,drz;
    KerGetParticlesDr(p2,posxy,posz,posdp1,drx,dry,drz);
    float rr2=drx*drx+dry*dry+drz*drz;
    if(rr2<=CTE.fourh2 && rr2>=ALMOSTZERO){
      //-Wendland kernel
      float frx,fry,frz;
      KerGetKernel(rr2,drx,dry,drz,frx,fry,frz);

			const float rDivW=drx*frx+dry*fry+drz*frz;//R.Div(W)
			divrp1-=volume*rDivW;

			dwxp1.x-=volume*frx*drx; dwxp1.y-=volume*fry*drx; dwxp1.z-=volume*frz*drx;
			dwyp1.x-=volume*frx*dry; dwyp1.y-=volume*fry*dry; dwyp1.z-=volume*frz*dry;
			dwzp1.x-=volume*frx*drz; dwzp1.y-=volume*fry*drz; dwzp1.z-=volume*frz*drz;

      //-Obtiene masa de particula p2 en caso de existir floatings.
	  //-Obtains particle mass p2 if there are floating bodies.
     // float ftmassp2;    //-Contiene masa de particula floating o massf si es fluid. //-Contains mass of floating body or massf if fluid.
 
			// bool compute=true; //-Se desactiva cuando se usa DEM y es float-float o float-bound. //-Deactivated when DEM is used and is float-float or float-bound.
     /* if(USE_FLOATING){
        const word cod=code[p2];
        bool ftp2=(CODE_GetType(cod)==CODE_TYPE_FLOATING);
        ftmassp2=(ftp2? ftomassp[CODE_GetTypeValue(cod)]: massf);
        compute=!(USE_DEM && ftp2); //-Se desactiva cuando se usa DEM y es bound-float. //-Deactivated when DEM is used and is bound-float.
      }*/
    }
  }
}

__device__ void KerCalculateMirrorVel
  (const unsigned &pini,const unsigned &pfin,const double2 *posxy,const double *posz
	,float4 *velrhop,double3 mirror,float3 &Sum1, float &Sum2)
{
	for(int p2=pini;p2<pfin;p2++){
    float drx,dry,drz;
    KerGetParticlesDr(p2,posxy,posz,mirror,drx,dry,drz);
    float rr2=drx*drx+dry*dry+drz*drz;
    if(rr2<=CTE.fourh2 && rr2>=ALMOSTZERO){
			const float4 velrhop2=velrhop[p2];
			const float W=KerGetKernelWab(rr2);
			Sum1.x+=W*velrhop2.x;
			Sum1.y+=W*velrhop2.y;
			Sum1.z+=W*velrhop2.z;
			Sum2+=W;
		}
	}
}

//------------------------------------------------------------------------------
/// Realiza interaccion entre particulas. Bound-Fluid/Float
/// Particle interaction. Bound-Fluid/Float
//------------------------------------------------------------------------------
template<TpFtMode ftmode> __global__ void KerInteractionForcesBound
  (TpSlipCond tslipcond,unsigned n,int hdiv,uint4 nc,const int2 *begincell,int3 cellzero,const unsigned *dcell
  ,const float *ftomassp
  ,const double2 *posxy,const double *posz,float4 *velrhop,const word *code,const unsigned *idp,double3 *dwxcorrg,double3 *dwycorrg,double3 *dwzcorrg,float *divr,const double3 *mirror,const int *irelationg)
{
  unsigned p1=blockIdx.y*gridDim.x*blockDim.x + blockIdx.x*blockDim.x + threadIdx.x; //-Nº de la partícula //-NI of particle.
  if(p1<n){
		unsigned codep1=CODE_GetTypeValue(code[p1]);
    if(codep1!=1){
      //-Carga datos de particula p1.
			//-Loads particle p1 data.
      double3 posdp1;
      float3 velp1;
      KerGetParticleData(p1,posxy,posz,velrhop,velp1,posdp1);
			
			float3 wallVelocity=make_float3(0,0,0);
			float divrp1=0.0;
			double3 dwxp1=make_double3(0,0,0); double3 dwyp1=make_double3(0,0,0); double3 dwzp1=make_double3(0,0,0);
      
			//-Obtiene limites de interaccion
			//-Obtains interaction limits
      int cxini,cxfin,yini,yfin,zini,zfin;
      KerGetInteractionCells(dcell[p1],hdiv,nc,cellzero,cxini,cxfin,yini,yfin,zini,zfin);

			//-Boundary-Bound interaction.
			for(int z=zini;z<zfin;z++){
        int zmod=(nc.w)*z;
        for(int y=yini;y<yfin;y++){
          int ymod=zmod+nc.x*y;
          unsigned pini,pfin=0;
          for(int x=cxini;x<cxfin;x++){
            int2 cbeg=begincell[x+ymod];
            if(cbeg.y){
              if(!pfin)pini=cbeg.x;
              pfin=cbeg.y;
            }
          }
          if(pfin)KerInteractionForcesBoundBound<ftmode> (pini,pfin,ftomassp,posxy,posz,velrhop,code,idp,CTE.massb,posdp1,velp1,dwxp1,dwyp1,dwzp1,divrp1,codep1,wallVelocity);
        }
      }
			
      //-Interaccion de Contorno con Fluidas.
	  //-Boundary-Fluid interaction.
      for(int z=zini;z<zfin;z++){
        int zmod=(nc.w)*z+(nc.w*nc.z+1);//-Le suma Nct+1 que es la primera celda de fluido. //-Adds Nct + 1 which is the first cell fluid.
        for(int y=yini;y<yfin;y++){
          int ymod=zmod+nc.x*y;
          unsigned pini,pfin=0;
          for(int x=cxini;x<cxfin;x++){
            int2 cbeg=begincell[x+ymod];
            if(cbeg.y){
              if(!pfin)pini=cbeg.x;
              pfin=cbeg.y;
            }
          }
          if(pfin)KerInteractionForcesBoundFluid<ftmode> (pini,pfin,ftomassp,posxy,posz,velrhop,code,idp,CTE.massf,posdp1,velp1,dwxp1,dwyp1,dwzp1,divrp1,codep1);
        }
      }

			unsigned idp1=idp[p1];
			if(tslipcond&&codep1==0&&irelationg[idp1]!=-1){
				float3 Sum1=make_float3(0,0,0);
				float Sum2=0.0;

				KerGetInteractionCells(irelationg[idp1],hdiv,nc,cellzero,cxini,cxfin,yini,yfin,zini,zfin);

				for(int z=zini;z<zfin;z++){
					int zmod=(nc.w)*z+(nc.w*nc.z+1);//-Le suma Nct+1 que es la primera celda de fluido. //-Adds Nct + 1 which is the first cell fluid.
					for(int y=yini;y<yfin;y++){
						int ymod=zmod+nc.x*y;
						unsigned pini,pfin=0;
						for(int x=cxini;x<cxfin;x++){
							int2 cbeg=begincell[x+ymod];
							if(cbeg.y){
								if(!pfin)pini=cbeg.x;
								pfin=cbeg.y;
							}
						}
						if(pfin) KerCalculateMirrorVel (pini,pfin,posxy,posz,velrhop,mirror[idp1],Sum1,Sum2);
					}
				}

				if(Sum2){
					if(tslipcond==SLIPCOND_Slip){
						velrhop[p1].x=(wallVelocity.x-(Sum1.x/Sum2))/2.0f;
						velrhop[p1].y=(wallVelocity.y-(Sum1.y/Sum2))/2.0f;
						velrhop[p1].z=(wallVelocity.z-(Sum1.z/Sum2))/2.0f;
					}
					else if(tslipcond==SLIPCOND_NoSlip){
						velrhop[p1].x=(wallVelocity.x+(Sum1.x/Sum2))/2.0f;
						velrhop[p1].y=(wallVelocity.y+(Sum1.y/Sum2))/2.0f;
						velrhop[p1].z=(wallVelocity.z+(Sum1.z/Sum2))/2.0f;
					}
				}
			}

			if(divrp1) divr[p1]=divrp1;
			if(idp[p1]==9408)divr[p1]=-1;
			if(dwxp1.x||dwxp1.y||dwxp1.z
				||dwyp1.x||dwyp1.y||dwyp1.z
				||dwzp1.x||dwzp1.y||dwzp1.z){
					dwxcorrg[p1].x+=dwxp1.x; dwxcorrg[p1].y+=dwxp1.y; dwxcorrg[p1].z+=dwxp1.z; 
					dwycorrg[p1].x+=dwyp1.x; dwycorrg[p1].y+=dwyp1.y; dwycorrg[p1].z+=dwyp1.z;
					dwzcorrg[p1].x+=dwzp1.x; dwzcorrg[p1].y+=dwzp1.y; dwzcorrg[p1].z+=dwzp1.z;
			}
    }
  }
}

//------------------------------------------------------------------------------
/// Realiza la interaccion de una particula con un conjunto de ellas. (Fluid/Float-Fluid/Float/Bound)
/// Interaction of a particle with a set of particles. (Fluid/Float-Fluid/Float/Bound)
//------------------------------------------------------------------------------
template<TpFtMode ftmode> __device__ void KerInteractionForcesFluidVisc
  (bool boundp2,unsigned p1,const unsigned &pini,const unsigned &pfin,float visco
  ,const float *ftomassp,const double2 *posxy,const double *posz,const float4 *velrhop,const word *code,const unsigned *idp
  ,float massp2,float ftmassp1,bool ftp1
  ,double3 posdp1,float3 velp1,float pressp1,float3 &acep1,float &divrp1,double3 &dwxp1,double3 &dwyp1,double3 &dwzp1)
{
  for(int p2=pini;p2<pfin;p2++){
    float drx,dry,drz;
    KerGetParticlesDr(p2,posxy,posz,posdp1,drx,dry,drz);
    float rr2=drx*drx+dry*dry+drz*drz;
    if(rr2<=CTE.fourh2 && rr2>=ALMOSTZERO){
      //-Wendland kernel.
      float frx,fry,frz;
      KerGetKernel(rr2,drx,dry,drz,frx,fry,frz);
	  
      //-Obtiene masa de particula p2 en caso de existir floatings.
	  //-Obtains mass of particle p2 if any floating bodies exist.
      //bool ftp2;         //-Indica si es floating. //-indicates if it is floating.
      //float ftmassp2;    //-Contiene masa de particula floating o massp2 si es bound o fluid. //-Contains mass of floating body or massf if fluid.
      /*if(USE_FLOATING){
        const word cod=code[p2];
        ftp2=(CODE_GetType(cod)==CODE_TYPE_FLOATING);
        ftmassp2=(ftp2? ftomassp[CODE_GetTypeValue(cod)]: massp2);
        if(ftp2 && (tdelta==DELTA_Dynamic || tdelta==DELTA_DynamicExt))deltap1=FLT_MAX;
        if(ftp2 && shift && tshifting==SHIFT_NoBound)shiftposp1.x=FLT_MAX; //-Con floatings anula shifting. //-Cancels shifting with floating bodies
        compute=!(USE_DEM && ftp1 && (boundp2 || ftp2)); //-Se desactiva cuando se usa DEM y es float-float o float-bound. //-Deactivated when DEM is used and is float-float or float-bound.
      }*/

      const float4 velrhop2=velrhop[p2];
      
      //===== Aceleration ===== 
		  const float volume=massp2/CTE.rhopzero; //Volume of particle j 
		  const float rDivW=drx*frx+dry*fry+drz*frz;//R.Div(W)
		  const float temp=volume*2.0f*visco*rDivW/(rr2+CTE.eta2);
	    const float dvx=velp1.x-velrhop2.x, dvy=velp1.y-velrhop2.y, dvz=velp1.z-velrhop2.z;
      acep1.x+=temp*dvx; acep1.y+=temp*dvy; acep1.z+=temp*dvz;

			divrp1-=volume*rDivW;

			dwxp1.x-=volume*frx*drx; dwxp1.y-=volume*fry*drx; dwxp1.z-=volume*frz*drx;
			dwyp1.x-=volume*frx*dry; dwyp1.y-=volume*fry*dry; dwyp1.z-=volume*frz*dry;
			dwzp1.x-=volume*frx*drz; dwzp1.y-=volume*fry*drz; dwzp1.z-=volume*frz*drz;
    }
  }
}

//------------------------------------------------------------------------------
/// Realiza la interaccion de una particula con un conjunto de ellas. (Fluid/Float-Fluid/Float/Bound)
/// Interaction of a particle with a set of particles. (Fluid/Float-Fluid/Float/Bound)
//------------------------------------------------------------------------------
template<TpFtMode ftmode> __device__ void KerInteractionForcesFluidPresGrad
  (bool boundp2,unsigned p1,const unsigned &pini,const unsigned &pfin,float visco
  ,const float *ftomassp,const double2 *posxy,const double *posz,const float4 *velrhop,const word *code,const unsigned *idp
  ,double3 *dwxcorrg,double3 *dwycorrg,double3 *dwzcorrg,float massp2,float ftmassp1,bool ftp1
  ,double3 posdp1,float3 velp1,float pressp1
  ,float3 &acep1)
{
  for(int p2=pini;p2<pfin;p2++){
    float drx,dry,drz;
		float pressp2=velrhop[p2].w;
    KerGetParticlesDr(p2,posxy,posz,posdp1,drx,dry,drz);
    float rr2=drx*drx+dry*dry+drz*drz;
    if(rr2<=CTE.fourh2 && rr2>=ALMOSTZERO){
      //-Wendland kernel.
      float frx,fry,frz;
      KerGetKernel(rr2,drx,dry,drz,frx,fry,frz);

      //-Obtiene masa de particula p2 en caso de existir floatings.
	  //-Obtains mass of particle p2 if any floating bodies exist.
      //bool ftp2;         //-Indica si es floating. //-indicates if it is floating.
      //float ftmassp2;    //-Contiene masa de particula floating o massp2 si es bound o fluid. //-Contains mass of floating body or massf if fluid.
      bool compute=true; //-Se desactiva cuando se usa DEM y es float-float o float-bound. //-Deactivated when DEM is used and is float-float or float-bound.
     /* if(USE_FLOATING){
        const word cod=code[p2];
        ftp2=(CODE_GetType(cod)==CODE_TYPE_FLOATING);
        ftmassp2=(ftp2? ftomassp[CODE_GetTypeValue(cod)]: massp2);
        if(ftp2 && (tdelta==DELTA_Dynamic || tdelta==DELTA_DynamicExt))deltap1=FLT_MAX;
        if(ftp2 && shift && tshifting==SHIFT_NoBound)shiftposp1.x=FLT_MAX; //-Con floatings anula shifting. //-Cancels shifting with floating bodies
        compute=!(USE_DEM && ftp1 && (boundp2 || ftp2)); //-Se desactiva cuando se usa DEM y es float-float o float-bound. //-Deactivated when DEM is used and is float-float or float-bound.
      }*/
      //===== Aceleration ===== 
      if(compute){
		    const float volumep2=massp2/CTE.rhopzero; //Volume of particle j
        const float temp_x=frx*dwxcorrg[p1].x+fry*dwycorrg[p1].x+frz*dwzcorrg[p1].x;
        const float temp_y=frx*dwxcorrg[p1].y+fry*dwycorrg[p1].y+frz*dwzcorrg[p1].y;
			  const float temp_z=frx*dwxcorrg[p1].z+fry*dwycorrg[p1].z+frz*dwzcorrg[p1].z;
        const float temp=volumep2*(pressp2-pressp1);
        acep1.x+=temp*temp_x; acep1.y+=temp*temp_y; acep1.z+=temp*temp_z;
      }
    }
  }
}

//------------------------------------------------------------------------------
/// ES:
/// Realiza interaccion entre particulas. Fluid/Float-Fluid/Float or Fluid/Float-Bound
/// Incluye visco artificial/laminar y floatings normales/dem.
/// EN:
/// Interaction between particles. Fluid/Float-Fluid/Float or Fluid/Float-Bound.
/// Includes artificial/laminar viscosity and normal/DEM floating bodies.
//------------------------------------------------------------------------------
template<TpFtMode ftmode> __global__ void KerInteractionForcesFluid
  (TpInter tinter,unsigned n,unsigned pinit,int hdiv,uint4 nc,unsigned cellfluid,float viscob,float viscof
  ,const int2 *begincell,int3 cellzero,const unsigned *dcell
  ,const float *ftomassp,const double2 *posxy,const double *posz,const float4 *velrhop,const word *code,const unsigned *idp
  ,double3 *dwxcorrg,double3 *dwycorrg,double3 *dwzcorrg,float3 *ace,float *divr)
{
  unsigned p=blockIdx.y*gridDim.x*blockDim.x + blockIdx.x*blockDim.x + threadIdx.x; //-Nº de la partícula //-NI of the particle
  if(p<n){
    unsigned p1=p+pinit;      //-Nº de particula. //-NI of particle
    float3 acep1=make_float3(0,0,0);
		float divrp1=0.0;
		double3 dwxp1=make_double3(0,0,0); double3 dwyp1=make_double3(0,0,0); double3 dwzp1=make_double3(0,0,0);
    //-Obtiene datos de particula p1 en caso de existir floatings.
	//-Obtains data of particle p1 in case there are floating bodies.
    bool ftp1;       //-Indica si es floating. //-Indicates if it is floating.
    float ftmassp1;  //-Contiene masa de particula floating o 1.0f si es fluid. //-Contains floating particle mass or 1.0f if it is fluid.
    if(USE_FLOATING){
      const word cod=code[p1];
      ftp1=(CODE_GetType(cod)==CODE_TYPE_FLOATING);
      ftmassp1=(ftp1? ftomassp[CODE_GetTypeValue(cod)]: 1.f);
      //if(ftp1 && (tdelta==DELTA_Dynamic || tdelta==DELTA_DynamicExt))deltap1=FLT_MAX;
      //if(ftp1 && shift)shiftposp1.x=FLT_MAX;  //-Para floatings no se calcula shifting. //-Shifting is not calculated for floating bodies.
    }

    //-Obtiene datos basicos de particula p1.
	//-Obtains basic data of particle p1.
    double3 posdp1;
    float3 velp1;
    const float pressp1=velrhop[p1].w;
    KerGetParticleData(p1,posxy,posz,velrhop,velp1,posdp1);
    //-Obtiene limites de interaccion
	//-Obtains interaction limits
    int cxini,cxfin,yini,yfin,zini,zfin;
    KerGetInteractionCells(dcell[p1],hdiv,nc,cellzero,cxini,cxfin,yini,yfin,zini,zfin);

    //-Interaccion con Fluidas.
	//-Interaction with fluids.
    for(int z=zini;z<zfin;z++){
      int zmod=(nc.w)*z+cellfluid; //-Le suma donde empiezan las celdas de fluido. //-The sum showing where fluid cells start
      for(int y=yini;y<yfin;y++){
        int ymod=zmod+nc.x*y;
        unsigned pini,pfin=0;
        for(int x=cxini;x<cxfin;x++){
          int2 cbeg=begincell[x+ymod];
          if(cbeg.y){
            if(!pfin)pini=cbeg.x;
            pfin=cbeg.y;
          }
        }
        if(pfin){
		  if(tinter==1)KerInteractionForcesFluidVisc<ftmode> (false,p1,pini,pfin,viscof,ftomassp,posxy,posz,velrhop,code,idp,CTE.massf,ftmassp1,ftp1,posdp1,velp1,pressp1,acep1,divrp1,dwxp1,dwyp1,dwzp1);
		  else if(tinter==2) KerInteractionForcesFluidPresGrad<ftmode> (false,p1,pini,pfin,viscof,ftomassp,posxy,posz,velrhop,code,idp,dwxcorrg,dwycorrg,dwzcorrg,CTE.massf,ftmassp1,ftp1,posdp1,velp1,pressp1,acep1);
		}
	  }
    }

    if(acep1.x||acep1.y||acep1.z||divrp1
			||dwxp1.x||dwxp1.y||dwxp1.z
			||dwyp1.x||dwyp1.y||dwyp1.z
			||dwzp1.x||dwzp1.y||dwzp1.z){
      float3 r=ace[p1]; 
      if(tinter==1){ 
				r.x+=acep1.x; r.y+=acep1.y; r.z+=acep1.z;
				
				divr[p1]+=divrp1;
				dwxcorrg[p1].x+=dwxp1.x; dwxcorrg[p1].y+=dwxp1.y; dwxcorrg[p1].z+=dwxp1.z; 
				dwycorrg[p1].x+=dwyp1.x; dwycorrg[p1].y+=dwyp1.y; dwycorrg[p1].z+=dwyp1.z;
				dwzcorrg[p1].x+=dwzp1.x; dwzcorrg[p1].y+=dwzp1.y; dwzcorrg[p1].z+=dwzp1.z;
				divrp1=0;
				dwxp1=make_double3(0,0,0); dwyp1=make_double3(0,0,0); dwzp1=make_double3(0,0,0);
			} 
	    if(tinter==2){ const float rho0=CTE.rhopzero; r.x+=(acep1.x/rho0); r.y+=(acep1.y/rho0); r.z+=(acep1.z/rho0);}
      ace[p1]=r;
			acep1=make_float3(0,0,0);  
    }

    //-Interaccion con contorno.
	//-Interaction with boundaries.
    for(int z=zini;z<zfin;z++){
      int zmod=(nc.w)*z;
      for(int y=yini;y<yfin;y++){
        int ymod=zmod+nc.x*y;
        unsigned pini,pfin=0;
        for(int x=cxini;x<cxfin;x++){
          int2 cbeg=begincell[x+ymod];
          if(cbeg.y){
            if(!pfin)pini=cbeg.x;
            pfin=cbeg.y;
          }
        }
        if(pfin){
		  		if(tinter==1)KerInteractionForcesFluidVisc<ftmode> (false,p1,pini,pfin,viscof,ftomassp,posxy,posz,velrhop,code,idp,CTE.massf,ftmassp1,ftp1,posdp1,velp1,pressp1,acep1,divrp1,dwxp1,dwyp1,dwzp1);
					else if(tinter==2) KerInteractionForcesFluidPresGrad<ftmode> (false,p1,pini,pfin,viscof,ftomassp,posxy,posz,velrhop,code,idp,dwxcorrg,dwycorrg,dwzcorrg,CTE.massf,ftmassp1,ftp1,posdp1,velp1,pressp1,acep1);
		}
      }
    }
    //-Almacena resultados.
	//-Stores results.
    if(acep1.x||acep1.y||acep1.z||divrp1
			||dwxp1.x||dwxp1.y||dwxp1.z
			||dwyp1.x||dwyp1.y||dwyp1.z
			||dwzp1.x||dwzp1.y||dwzp1.z){
      float3 r=ace[p1]; 
      if(tinter==1){ 
				r.x+=acep1.x; r.y+=acep1.y; r.z+=acep1.z;
				
				divr[p1]+=divrp1;
				dwxcorrg[p1].x+=dwxp1.x; dwxcorrg[p1].y+=dwxp1.y; dwxcorrg[p1].z+=dwxp1.z; 
				dwycorrg[p1].x+=dwyp1.x; dwycorrg[p1].y+=dwyp1.y; dwycorrg[p1].z+=dwyp1.z;
				dwzcorrg[p1].x+=dwzp1.x; dwzcorrg[p1].y+=dwzp1.y; dwzcorrg[p1].z+=dwzp1.z;
			} 
	    if(tinter==2){ const float rho0=CTE.rhopzero; r.x+=(acep1.x/rho0); r.y+=(acep1.y/rho0); r.z+=(acep1.z/rho0);}
      ace[p1]=r;
    }
  }
}

//==============================================================================
/// Interaccion para el calculo de fuerzas.
/// Interaction for the force computation.
//==============================================================================
template<TpFtMode ftmode> void Interaction_ForcesT
  (TpSlipCond tslipcond,TpCellMode cellmode,float viscob,float viscof,unsigned bsbound,unsigned bsfluid
  ,TpInter tinter,unsigned np,unsigned npb,unsigned npbok,tuint3 ncells
  ,const int2 *begincell,tuint3 cellmin,const unsigned *dcell
  ,const double2 *posxy,const double *posz,float4 *velrhop,const word *code,const unsigned *idp,double3 *dwxcorrg,double3 *dwycorrg,double3 *dwzcorrg
  ,const float *ftomassp,float3 *ace,bool simulate2d,unsigned *porder,unsigned *counter,int *irelationg,float *divr,const double3 *mirror)
{
  const unsigned npf=np-npb;
  const int hdiv=(cellmode==CELLMODE_H? 2: 1);
  const uint4 nc=make_uint4(ncells.x,ncells.y,ncells.z,ncells.x*ncells.y);
  const unsigned cellfluid=nc.w*nc.z+1;
  const int3 cellzero=make_int3(cellmin.x,cellmin.y,cellmin.z);

	dim3 sgridb=GetGridSize(npbok,bsbound);
	dim3 sgridf=GetGridSize(npf,bsfluid);

	if(tinter==1){ 
		KerMatrixOrderDummy <<<sgridb,bsbound>>> (np,npb,hdiv,nc,begincell,cellzero,dcell,code,idp,irelationg,porder);
    KerInteractionForcesBound<ftmode> <<<sgridb,bsbound>>> (tslipcond,npbok,hdiv,nc,begincell,cellzero,dcell,ftomassp,posxy,posz,velrhop,code,idp,dwxcorrg,dwycorrg,dwzcorrg,divr,mirror,irelationg);
  }
  //-Interaccion Fluid-Fluid & Fluid-Bound
  //-Interaction Fluid-Fluid & Fluid-Bound
  if(npf){
		if(tinter==1) KerMatrixOrderFluid <<<sgridf,bsfluid>>> (npf,npb,porder,counter);
    KerInteractionForcesFluid<ftmode> <<<sgridf,bsfluid>>> (tinter,npf,npb,hdiv,nc,cellfluid,viscob,viscof,begincell,cellzero,dcell,ftomassp,posxy,posz,velrhop,code,idp,dwxcorrg,dwycorrg,dwzcorrg,ace,divr);
  }

	if(tinter==1){
		if(simulate2d){
			KerInverseKernelCor2D <<<sgridf,bsfluid>>> (npf,npb,dwxcorrg,dwzcorrg,code);
			KerInverseKernelCor2D <<<sgridb,bsbound>>> (npbok,0,dwxcorrg,dwzcorrg,code);
		}
		else{
			KerInverseKernelCor3D <<<sgridf,bsfluid>>> (npf,npb,dwxcorrg,dwycorrg,dwzcorrg,code);
			KerInverseKernelCor3D <<<sgridb,bsbound>>> (npbok,0,dwxcorrg,dwycorrg,dwzcorrg,code);
		}
	}
}
//==============================================================================
void Interaction_Forces(bool floating,bool usedem,TpSlipCond tslipcond,TpCellMode cellmode
  ,float viscob,float viscof,unsigned bsbound,unsigned bsfluid
  ,TpInter tinter,unsigned np,unsigned npb,unsigned npbok,tuint3 ncells
  ,const int2 *begincell,tuint3 cellmin,const unsigned *dcell
  ,const double2 *posxy,const double *posz,float4 *velrhop,const word *code,const unsigned *idp,double3 *dwxcorrg,double3 *dwycorrg,double3 *dwzcorrg
  ,const float *ftomassp,float3 *ace,bool simulate2d,unsigned *porder,unsigned *counter,int *irelationg,float *divr,const double3 *mirror)
{
  if(!floating)   Interaction_ForcesT<FTMODE_None> (tslipcond,cellmode,viscob,viscof,bsbound,bsfluid,tinter,np,npb,npbok,ncells,begincell,cellmin,dcell,posxy,posz,velrhop,code,idp,dwxcorrg,dwycorrg,dwzcorrg,ftomassp,ace,simulate2d,porder,counter,irelationg,divr,mirror);
  else if(!usedem)Interaction_ForcesT<FTMODE_Sph>  (tslipcond,cellmode,viscob,viscof,bsbound,bsfluid,tinter,np,npb,npbok,ncells,begincell,cellmin,dcell,posxy,posz,velrhop,code,idp,dwxcorrg,dwycorrg,dwzcorrg,ftomassp,ace,simulate2d,porder,counter,irelationg,divr,mirror);
  else            Interaction_ForcesT<FTMODE_Dem>  (tslipcond,cellmode,viscob,viscof,bsbound,bsfluid,tinter,np,npb,npbok,ncells,begincell,cellmin,dcell,posxy,posz,velrhop,code,idp,dwxcorrg,dwycorrg,dwzcorrg,ftomassp,ace,simulate2d,porder,counter,irelationg,divr,mirror);
}

/*//##############################################################################
//# Kernels para interaccion DEM.
//# Kernels for DEM interaction
//##########################################.####################################
//------------------------------------------------------------------------------
/// Realiza la interaccion DEM de una particula con un conjunto de ellas. (Float-Float/Bound)
/// DEM interaction of a particle with a set of particles (Float-Float/Bound).
//------------------------------------------------------------------------------
template<bool psimple> __device__ void KerInteractionForcesDemBox 
  (bool boundp2,const unsigned &pini,const unsigned &pfin
  ,const float4 *demdata,float dtforce
  ,const double2 *posxy,const double *posz,const float4 *pospress,const float4 *velrhop,const word *code,const unsigned *idp
  ,double3 posdp1,float3 posp1,float3 velp1,word tavp1,float masstotp1,float taup1,float kfricp1,float restitup1
  ,float3 &acep1,float &demdtp1)
{
  for(int p2=pini;p2<pfin;p2++){
    const word codep2=code[p2];
    if(CODE_GetType(codep2)!=CODE_TYPE_FLUID && tavp1!=CODE_GetTypeAndValue(codep2)){
      float drx,dry,drz;
      KerGetParticlesDr<psimple> (p2,posxy,posz,pospress,posdp1,posp1,drx,dry,drz);
      const float rr2=drx*drx+dry*dry+drz*drz;
      const float rad=sqrt(rr2);

      //-Calcula valor maximo de demdt.
	  //-Computes maximum value of demdt.
      float4 demdatap2=demdata[CODE_GetTypeAndValue(codep2)];
      const float nu_mass=(boundp2? masstotp1/2: masstotp1*demdatap2.x/(masstotp1+demdatap2.x)); //-Con boundary toma la propia masa del floating 1. //-With boundary takes the actual mass of floating 1.
      const float kn=4/(3*(taup1+demdatap2.y))*sqrt(CTE.dp/4);  //generalized rigidity - Lemieux 2008
      const float demvisc=float(PI)/(sqrt( kn/nu_mass ))*40.f;
      if(demdtp1<demvisc)demdtp1=demvisc;

      const float over_lap=1.0f*CTE.dp-rad; //-(ri+rj)-|dij|
      if(over_lap>0.0f){ //-Contact
        const float dvx=velp1.x-velrhop[p2].x, dvy=velp1.y-velrhop[p2].y, dvz=velp1.z-velrhop[p2].z; //vji
        const float nx=drx/rad, ny=dry/rad, nz=drz/rad; //normal_ji             
        const float vn=dvx*nx+dvy*ny+dvz*nz; //vji.nji    
        //normal                    
        const float eij=(restitup1+demdatap2.w)/2;
        const float gn=-(2.0f*log(eij)*sqrt(nu_mass*kn))/(sqrt(float(PI)+log(eij)*log(eij))); //generalized damping - Cummins 2010
        //const float gn=0.08f*sqrt(nu_mass*sqrt(CTE.dp/2)/((taup1+demdatap2.y)/2)); //generalized damping - Lemieux 2008
        float rep=kn*pow(over_lap,1.5f);
        float fn=rep-gn*pow(over_lap,0.25f)*vn;                   
        acep1.x+=(fn*nx); acep1.y+=(fn*ny); acep1.z+=(fn*nz); //-Force is applied in the normal between the particles
        //tangencial
        float dvxt=dvx-vn*nx, dvyt=dvy-vn*ny, dvzt=dvz-vn*nz; //Vji_t
        float vt=sqrt(dvxt*dvxt + dvyt*dvyt + dvzt*dvzt);
        float tx=(vt!=0? dvxt/vt: 0), ty=(vt!=0? dvyt/vt: 0), tz=(vt!=0? dvzt/vt: 0); //Tang vel unit vector
        float ft_elast=2*(kn*dtforce-gn)*vt/7;   //Elastic frictional string -->  ft_elast=2*(kn*fdispl-gn*vt)/7; fdispl=dtforce*vt;
        const float kfric_ij=(kfricp1+demdatap2.z)/2;
        float ft=kfric_ij*fn*tanh(8*vt);  //Coulomb
        ft=(ft<ft_elast? ft: ft_elast);   //not above yield criteria, visco-elastic model
        acep1.x+=(ft*tx); acep1.y+=(ft*ty); acep1.z+=(ft*tz);
      }
    }
  }
}

//------------------------------------------------------------------------------
/// ES:
/// Realiza interaccion entre particulas. Fluid/Float-Fluid/Float or Fluid/Float-Bound
/// Incluye visco artificial/laminar y floatings normales/dem.
/// - EN:
/// Interaction between particles. Fluid/Float-Fluid/Float or Fluid/Float-Bound.
/// Includes artificial/laminar viscosity and normal/DEM floating bodies.
//------------------------------------------------------------------------------
template<bool psimple> __global__ void KerInteractionForcesDem
  (unsigned nfloat,int hdiv,uint4 nc,unsigned cellfluid
  ,const int2 *begincell,int3 cellzero,const unsigned *dcell
  ,const unsigned *ftridp,const float4 *demdata,float dtforce
  ,const double2 *posxy,const double *posz,const float4 *pospress,const float4 *velrhop,const word *code,const unsigned *idp
  ,float *viscdt,float3 *ace)
{
  unsigned p=blockIdx.y*gridDim.x*blockDim.x + blockIdx.x*blockDim.x + threadIdx.x; //-Nº de la partícula //-NI of the particle
  if(p<nfloat){
    const unsigned p1=ftridp[p];      //-Nº de particula. //-NI of the particle
    if(p1!=UINT_MAX){
      float demdtp1=0;
      float3 acep1=make_float3(0,0,0);

      //-Obtiene datos basicos de particula p1.
	  //-Obtains basic data of particle p1.
      double3 posdp1;
      float3 posp1,velp1;
      KerGetParticleData<psimple>(p1,posxy,posz,pospress,velrhop,velp1,posdp1,posp1);
      const word tavp1=CODE_GetTypeAndValue(code[p1]);
      float4 rdata=demdata[tavp1];
      const float masstotp1=rdata.x;
      const float taup1=rdata.y;
      const float kfricp1=rdata.z;
      const float restitup1=rdata.w;

      //-Obtiene limites de interaccion
	  //-Obtains interaction limits
      int cxini,cxfin,yini,yfin,zini,zfin;
      KerGetInteractionCells(dcell[p1],hdiv,nc,cellzero,cxini,cxfin,yini,yfin,zini,zfin);

      //-Interaccion con contorno.
	  //-Interaction with boundaries.
      for(int z=zini;z<zfin;z++){
        int zmod=(nc.w)*z;
        for(int y=yini;y<yfin;y++){
          int ymod=zmod+nc.x*y;
          unsigned pini,pfin=0;
          for(int x=cxini;x<cxfin;x++){
            int2 cbeg=begincell[x+ymod];
            if(cbeg.y){
              if(!pfin)pini=cbeg.x;
              pfin=cbeg.y;
            }
          }
          if(pfin)KerInteractionForcesDemBox<psimple> (true ,pini,pfin,demdata,dtforce,posxy,posz,pospress,velrhop,code,idp,posdp1,posp1,velp1,tavp1,masstotp1,taup1,kfricp1,restitup1,acep1,demdtp1);
        }
      }

      //-Interaccion con Fluidas.
	  //-Interaction with fluids.
      for(int z=zini;z<zfin;z++){
        int zmod=(nc.w)*z+cellfluid; //-Le suma donde empiezan las celdas de fluido. //-The sum showing where fluid cells start
        for(int y=yini;y<yfin;y++){
          int ymod=zmod+nc.x*y;
          unsigned pini,pfin=0;
          for(int x=cxini;x<cxfin;x++){
            int2 cbeg=begincell[x+ymod];
            if(cbeg.y){
              if(!pfin)pini=cbeg.x;
              pfin=cbeg.y;
            }
          }
          if(pfin)KerInteractionForcesDemBox<psimple> (false,pini,pfin,demdata,dtforce,posxy,posz,pospress,velrhop,code,idp,posdp1,posp1,velp1,tavp1,masstotp1,taup1,kfricp1,restitup1,acep1,demdtp1);
        }
      }
      //-Almacena resultados.
	  //-Stores results.
      if(acep1.x || acep1.y || acep1.z || demdtp1){
        float3 r=ace[p1]; r.x+=acep1.x; r.y+=acep1.y; r.z+=acep1.z; ace[p1]=r;
        if(viscdt[p1]<demdtp1)viscdt[p1]=demdtp1;
      }
    }
  }
}

//==============================================================================
/// Interaccion para el calculo de fuerzas.
/// Interaction for the force computation.
//==============================================================================
template<bool psimple> void Interaction_ForcesDemT
  (TpCellMode cellmode,unsigned bsize
  ,unsigned nfloat,tuint3 ncells,const int2 *begincell,tuint3 cellmin,const unsigned *dcell
  ,const unsigned *ftridp,const float4 *demdata,float dtforce
  ,const double2 *posxy,const double *posz,const float4 *pospress,const float4 *velrhop
  ,const word *code,const unsigned *idp,float *viscdt,float3 *ace)
{
  const int hdiv=(cellmode==CELLMODE_H? 2: 1);
  const uint4 nc=make_uint4(ncells.x,ncells.y,ncells.z,ncells.x*ncells.y);
  const unsigned cellfluid=nc.w*nc.z+1;
  const int3 cellzero=make_int3(cellmin.x,cellmin.y,cellmin.z);
  //-Interaccion Fluid-Fluid & Fluid-Bound
  //-Interaction Fluid-Fluid & Fluid-Bound
  if(nfloat){
    dim3 sgrid=GetGridSize(nfloat,bsize);
    KerInteractionForcesDem<psimple> <<<sgrid,bsize>>> (nfloat,hdiv,nc,cellfluid,begincell,cellzero,dcell,ftridp,demdata,dtforce,posxy,posz,pospress,velrhop,code,idp,viscdt,ace);
  }
}
//==============================================================================
void Interaction_ForcesDem(bool psimple,TpCellMode cellmode,unsigned bsize
  ,unsigned nfloat,tuint3 ncells,const int2 *begincell,tuint3 cellmin,const unsigned *dcell
  ,const unsigned *ftridp,const float4 *demdata,float dtforce
  ,const double2 *posxy,const double *posz,const float4 *pospress,const float4 *velrhop
  ,const word *code,const unsigned *idp,float *viscdt,float3 *ace)
{
  if(psimple)Interaction_ForcesDemT<true>  (cellmode,bsize,nfloat,ncells,begincell,cellmin,dcell,ftridp,demdata,dtforce,posxy,posz,pospress,velrhop,code,idp,viscdt,ace);
  else       Interaction_ForcesDemT<false> (cellmode,bsize,nfloat,ncells,begincell,cellmin,dcell,ftridp,demdata,dtforce,posxy,posz,pospress,velrhop,code,idp,viscdt,ace);
}
*/

//##############################################################################
//# Kernels para Shifting.
//# Shifting kernels.
//##############################################################################
//------------------------------------------------------------------------------
/// Calcula Shifting final para posicion de particulas.
/// Computes final shifting for the particle position.
//------------------------------------------------------------------------------
__global__ void KerRunShifting(const bool simulate2d,unsigned n,unsigned pini,double dt
  ,float shiftcoef,float freesurface,double coeftfs
  ,float4 *velrhop,const float *divr,float3 *shiftpos,const double ShiftOffset,bool maxShift)
{
  unsigned p=blockIdx.y*gridDim.x*blockDim.x + blockIdx.x*blockDim.x + threadIdx.x; //-Nº de la partícula //-NI of the particle.
  if(p<n){
    const unsigned p1=p+pini;
    float3 rshiftpos=shiftpos[p1];
    float divrp1=divr[p1];
    double umagn=-double(shiftcoef)*double(CTE.h)*double(CTE.h);

 	  float3 norm=make_float3(-rshiftpos.x,-rshiftpos.y,-rshiftpos.z);
	  float3 tang=make_float3(0,0,0);
	  float3 bitang=make_float3(0,0,0);

	  //-tangent and bitangent calculation
	  tang.x=norm.z+norm.y;		
	  if(!simulate2d)tang.y=-(norm.x+norm.z);	
	  tang.z=-norm.x+norm.y;
	  bitang.x=tang.y*norm.z-norm.y*tang.z;
	  if(!simulate2d)bitang.y=norm.x*tang.z-tang.x*norm.z;
	  bitang.z=tang.x*norm.y-norm.x*tang.y;

	  //-unit normal vector
	  float temp=norm.x*norm.x+norm.y*norm.y+norm.z*norm.z;
	  temp=sqrt(temp);
	  norm.x=norm.x/temp; norm.y=norm.y/temp; norm.z=norm.z/temp;
	  if(!temp){norm.x=0.f; norm.y=0.f; norm.z=0.f;}

	  //-unit tangent vector
	  temp=tang.x*tang.x+tang.y*tang.y+tang.z*tang.z;
	  temp=sqrt(temp);
	  tang.x=tang.x/temp; tang.y=tang.y/temp; tang.z=tang.z/temp;
	  if(!temp){tang.x=0.f; tang.y=0.f; tang.z=0.f;}

	  //-unit bitangent vector
	  temp=bitang.x*bitang.x+bitang.y*bitang.y+bitang.z*bitang.z;
	  temp=sqrt(temp);
	  bitang.x=bitang.x/temp; bitang.y=bitang.y/temp; bitang.z=bitang.z/temp;
	  if(!temp){bitang.x=0.f; bitang.y=0.f; bitang.z=0.f;}

	  //-gradient calculation
	  float dcds=tang.x*rshiftpos.x+tang.z*rshiftpos.z+tang.y*rshiftpos.y;
	  float dcdn=norm.x*rshiftpos.x+norm.z*rshiftpos.z+norm.y*rshiftpos.y;
	  float dcdb=bitang.x*rshiftpos.x+bitang.z*rshiftpos.z+bitang.y*rshiftpos.y;

    if(divrp1<freesurface){
      rshiftpos.x=dcds*tang.x+dcdb*bitang.x;
      rshiftpos.y=dcds*tang.y+dcdb*bitang.y;
      rshiftpos.z=dcds*tang.z+dcdb*bitang.z;
    }
    else if(divrp1>=freesurface && divrp1<=freesurface+ShiftOffset){ 
      double FactorShift=0.5*(1-cos(PI*double(divrp1-freesurface)/0.2));
      rshiftpos.x=dcds*tang.x+dcdb*bitang.x+dcdn*norm.x*FactorShift;
      rshiftpos.y=dcds*tang.y+dcdb*bitang.y+dcdn*norm.y*FactorShift;
      rshiftpos.z=dcds*tang.z+dcdb*bitang.z+dcdn*norm.z*FactorShift;
    }

    rshiftpos.x=float(double(rshiftpos.x)*umagn);
    rshiftpos.y=float(double(rshiftpos.y)*umagn);
    rshiftpos.z=float(double(rshiftpos.z)*umagn);
    shiftpos[p1]=rshiftpos; //particles in fluid bulk, normal shifting

    //Max Shifting
		if(maxShift){
			double Maxx=abs(velrhop[p1].x*dt);
			double Maxy=abs(velrhop[p1].y*dt);
			double Maxz=abs(velrhop[p1].z*dt);
			if(abs(shiftpos[p1].x)>Maxx){
				if(shiftpos[p1].x>0) shiftpos[p1].x=Maxx;
				else shiftpos[p1].x=-Maxx;
			}
			if(abs(shiftpos[p1].y)>Maxy){
				if(shiftpos[p1].y>0) shiftpos[p1].y=Maxy;
				else shiftpos[p1].y=-Maxy;
			}
			if(abs(shiftpos[p1].z)>Maxz){
				if(shiftpos[p1].z>0) shiftpos[p1].z=Maxz;
				else shiftpos[p1].z=-Maxz;
			}
		}
  }
}

//==============================================================================
/// Calcula Shifting final para posicion de particulas.
/// Computes final shifting for the particle position.
//==============================================================================
void RunShifting(const bool simulate2d,unsigned np,unsigned npb,double dt
  ,double shiftcoef,float freesurface,double coeftfs
  ,float4 *velrhop,const float *divr,float3 *shiftpos,bool maxShift)
{
  const unsigned npf=np-npb;
  const double ShiftOffset=0.2;
  if(npf){
    dim3 sgrid=GetGridSize(npf,SPHBSIZE);
    KerRunShifting <<<sgrid,SPHBSIZE>>> (simulate2d,npf,npb,dt,shiftcoef,freesurface,coeftfs,velrhop,divr,shiftpos,ShiftOffset,maxShift);
  }
}

//------------------------------------------------------------------------------
/// Calcula los nuevos valores de Pos, Vel y Rhop (usando para Symplectic-Predictor)
/// Computes new values for Pos, Check, Vel and Ros (used with Symplectic-Predictor).
//------------------------------------------------------------------------------
template<bool floating> __global__ void KerComputeStepSymplecticPre
  (unsigned n,unsigned npb
  ,const float4 *velrhoppre,const float3 *ace,double dtm,float rhopoutmin,float rhopoutmax
  ,word *code,double2 *movxy,double *movz,float4 *velrhop)
{
  unsigned p=blockIdx.y*gridDim.x*blockDim.x + blockIdx.x*blockDim.x + threadIdx.x; //-Nº de la partícula //-NI of the particle.
  if(p<n){
    if(p<npb){//-Particulas: Fixed & Moving //-Particles: Fixed & Moving
      float4 rvelrhop=velrhoppre[p];
       rvelrhop.w=velrhop[p].w;
      /*rvelrhop.w=float(double(rvelrhop.w)+dtm*ar[p]);
      rvelrhop.w=(rvelrhop.w<CTE.rhopzero? CTE.rhopzero: rvelrhop.w);*/ //-Evita q las boundary absorvan a las fluidas.  //-To prevent absorption of fluid particles by boundaries.
      velrhop[p]=rvelrhop;
    }
    else{ //-Particulas: Floating & Fluid //-Particles: Floating & Fluid
      //-Actualiza densidad.
	  //-Updates density.
      float4 rvelrhop=velrhoppre[p];
      if(!floating || CODE_GetType(code[p])==CODE_TYPE_FLUID){//-Particulas: Fluid //-Particles: Fluid
        //-Comprueba limites de rhop.
		//-Checks rhop limits.
        /*if(rvelrhop.w<rhopoutmin||rvelrhop.w>rhopoutmax){//-Solo marca como excluidas las normales (no periodicas).  //-Only brands as excluded normal particles (not periodic)
          const word rcode=code[p];
          if(CODE_GetSpecialValue(rcode)==CODE_NORMAL)code[p]=CODE_SetOutRhop(rcode);
        }*/
        //-Calcula y graba desplazamiento de posicion.
		//-Computes and stores position displacement.
        double dx=double(rvelrhop.x)*dtm;
        double dy=double(rvelrhop.y)*dtm;
        double dz=double(rvelrhop.z)*dtm;
        /*if(shift){
          const float3 rshiftpos=shiftpos[p];
          dx+=double(rshiftpos.x);
          dy+=double(rshiftpos.y);
          dz+=double(rshiftpos.z);
        }*/
        movxy[p]=make_double2(dx,dy);
        movz[p]=dz;
        //-Actualiza velocidad.
		//-Updates velocity.
        const float3 race=ace[p];
        rvelrhop.x=float(double(rvelrhop.x)+double(race.x)*dtm);
        rvelrhop.y=float(double(rvelrhop.y)+double(race.y)*dtm);
        rvelrhop.z=float(double(rvelrhop.z)+double(race.z)*dtm);
      }
      /*else{//-Particulas: Floating /-Particles: Floating
        rvelrhop.w=(rvelrhop.w<CTE.rhopzero? CTE.rhopzero: rvelrhop.w); //-Evita q las floating absorvan a las fluidas.  //-To prevent absorption of fluid particles by boundaries.
      }*/
      //-Graba nueva velocidad y densidad.
	  //-Stores new velocity and density.
      velrhop[p]=rvelrhop;
    }
  }
}

//==============================================================================
/// Actualizacion de particulas usando Symplectic-Predictor.
/// Updates particles using Symplectic-Predictor.
//==============================================================================   
void ComputeStepSymplecticPre(bool floating,unsigned np,unsigned npb
  ,const float4 *velrhoppre,const float3 *ace,double dtm,float rhopoutmin,float rhopoutmax
  ,word *code,double2 *movxy,double *movz,float4 *velrhop)
{
  if(np){
    dim3 sgrid=GetGridSize(np,SPHBSIZE);

    if(floating)KerComputeStepSymplecticPre<true>  <<<sgrid,SPHBSIZE>>> (np,npb,velrhoppre,ace,dtm,rhopoutmin,rhopoutmax,code,movxy,movz,velrhop);
    else        KerComputeStepSymplecticPre<false> <<<sgrid,SPHBSIZE>>> (np,npb,velrhoppre,ace,dtm,rhopoutmin,rhopoutmax,code,movxy,movz,velrhop);
  }
}

//------------------------------------------------------------------------------
/// ES:
/// Calcula los nuevos valores de Pos, Vel y Rhop (usandopara Symplectic-Corrector)
/// Pone vel de contorno a cero.
/// - EN:
/// Computes new values for Pos, Check, Vel and Ros (using Symplectic-Corrector).
/// The value of Vel always set to be reset.
//------------------------------------------------------------------------------
template<bool floating> __global__ void KerComputeStepSymplecticCor
  (unsigned n,unsigned npb
  ,const float4 *velrhoppre,const float3 *ace,double dtm,double dt,float rhopoutmin,float rhopoutmax
  ,word *code,double2 *movxy,double *movz,float4 *velrhop,tfloat3 gravity)
{
  unsigned p=blockIdx.y*gridDim.x*blockDim.x + blockIdx.x*blockDim.x + threadIdx.x; //-Nº de la partícula //-NI of the particle.
  if(p<n){
    if(p<npb){//-Particulas: Fixed & Moving //-Particles: Fixed & Moving
      /*double epsilon_rdot=(-double(ar[p])/double(velrhop[p].w))*dt;
      float rrhop=float(double(velrhoppre[p].w) * (2.-epsilon_rdot)/(2.+epsilon_rdot));
      rrhop=(rrhop<CTE.rhopzero? CTE.rhopzero: rrhop); //-Evita q las boundary absorvan a las fluidas. //-To prevent absorption of fluid particles by boundaries.
      velrhop[p]=make_float4(0,0,0,rrhop);*/
      //velrhop[p].w=float(b[porder[p]]);
    }
    else{ //-Particulas: Floating & Fluid //-Particles: Floating & Fluid
      //-Actualiza densidad.
		//-Updates density.
      //double epsilon_rdot=(-double(ar[p])/double(velrhop[p].w))*dt;
      float4 rvelrhop=velrhop[p];
      //rvelrhop.w=float(double(rvelrhop.w) * (2.-epsilon_rdot)/(2.+epsilon_rdot));
      if(!floating || CODE_GetType(code[p])==CODE_TYPE_FLUID){//-Particulas: Fluid //-Particles: Fluid
        float4 rvelp=velrhoppre[p];
        //-Actualiza velocidad.
		//-Updates velocity.
        float3 race=ace[p];
        rvelrhop.x-=float(double(race.x-gravity.x)*dt);
        rvelrhop.y-=float(double(race.y-gravity.y)*dt);
        rvelrhop.z-=float(double(race.z-gravity.z)*dt);
        //-Comprueba limites de rhop.
		/*//-Checks rhop limits.
        if(rvelrhop.w<rhopoutmin||rvelrhop.w>rhopoutmax){//-Solo marca como excluidas las normales (no periodicas). //-Only brands as excluded normal particles (not periodic)
          const word rcode=code[p];
          if(CODE_GetSpecialValue(rcode)==CODE_NORMAL)code[p]=CODE_SetOutRhop(rcode);
        }*/
        //-Calcula y graba desplazamiento de posicion.
		//-Computes and stores position displacement.
        double dx=(double(rvelp.x)+double(rvelrhop.x))*dtm;
        double dy=(double(rvelp.y)+double(rvelrhop.y))*dtm;
        double dz=(double(rvelp.z)+double(rvelrhop.z))*dtm;
        /*if(shift){
          const float3 rshiftpos=shiftpos[p];
          dx+=double(rshiftpos.x);
          dy+=double(rshiftpos.y);
          dz+=double(rshiftpos.z);
        }*/
        movxy[p]=make_double2(dx,dy);
        movz[p]=dz;
      }
      /*else{//-Particulas: Floating //-Particles: Floating
        rvelrhop.w=(rvelrhop.w<CTE.rhopzero? CTE.rhopzero: rvelrhop.w); //-Evita q las floating absorvan a las fluidas. //-To prevent absorption of fluid particles by boundaries.
      }*/
      //-Graba nueva velocidad y densidad.
	  //-Stores new velocity and density.
      //rvelrhop.w=float(b[porder[p]]);
      velrhop[p]=rvelrhop;
    }
  }
}

//==============================================================================
// Actualizacion de particulas usando Symplectic-Corrector.
/// Updates particles using Symplectic-Corrector.
//==============================================================================   
void ComputeStepSymplecticCor(bool floating,unsigned np,unsigned npb
  ,const float4 *velrhoppre,const float3 *ace,double dtm,double dt,float rhopoutmin,float rhopoutmax
  ,word *code,double2 *movxy,double *movz,float4 *velrhop,tfloat3 gravity)
{
  if(np){
    dim3 sgrid=GetGridSize(np,SPHBSIZE);

    if(floating)KerComputeStepSymplecticCor<true>  <<<sgrid,SPHBSIZE>>> (np,npb,velrhoppre,ace,dtm,dt,rhopoutmin,rhopoutmax,code,movxy,movz,velrhop,gravity);
    else        KerComputeStepSymplecticCor<false> <<<sgrid,SPHBSIZE>>> (np,npb,velrhoppre,ace,dtm,dt,rhopoutmin,rhopoutmax,code,movxy,movz,velrhop,gravity);
  }
}


//##############################################################################
//# Kernels para ComputeStep (position)
//# Kernels for ComputeStep (position)
//##############################################################################
//------------------------------------------------------------------------------
/// ES:
/// Actualiza pos, dcell y code a partir del desplazamiento indicado.
/// Code puede ser CODE_OUTRHOP pq en ComputeStepVerlet/Symplectic se evalua esto 
/// y se ejecuta antes que ComputeStepPos.
/// Comprueba los limites en funcion de maprealposmin y maprealsize esto es valido
/// para single-gpu pq domrealpos y maprealpos son iguales. Para multi-gpu seria 
/// necesario marcar las particulas q salgan del dominio sin salir del mapa.
/// - EN:
/// Updates pos, dcell and code from the indicated displacement.
/// The code may be CODE_OUTRHOP because in ComputeStepVerlet / Symplectic this is evaluated
/// and is executed before ComputeStepPos.
/// Checks limits depending on maprealposmin and maprealsize, this is valid 
/// for single-GPU because maprealpos and domrealpos are equal. For multi-gpu it is
/// important to mark particles that leave the domain without leaving the map.
//------------------------------------------------------------------------------
template<bool periactive> __device__ void KerUpdatePos
  (double2 rxy,double rz,double movx,double movy,double movz
  ,bool outrhop,unsigned p,double2 *posxy,double *posz,unsigned *dcell,word *code)
{
  //-Comprueba validez del desplazamiento.
  //-Checks validity of displacement.
  bool outmove=(fmaxf(fabsf(float(movx)),fmaxf(fabsf(float(movy)),fabsf(float(movz))))>CTE.movlimit);
  //-Aplica desplazamiento.
  //-Applies diplacement.
  double3 rpos=make_double3(rxy.x,rxy.y,rz);
  rpos.x+=movx; rpos.y+=movy; rpos.z+=movz;
  //-Comprueba limites del dominio reales.
  //-Checks limits of real domain.
  double dx=rpos.x-CTE.maprealposminx;
  double dy=rpos.y-CTE.maprealposminy;
  double dz=rpos.z-CTE.maprealposminz;
  bool out=(dx!=dx || dy!=dy || dz!=dz || dx<0 || dy<0 || dz<0 || dx>=CTE.maprealsizex || dy>=CTE.maprealsizey || dz>=CTE.maprealsizez);
  if(periactive && out){
    bool xperi=(CTE.periactive&1),yperi=(CTE.periactive&2),zperi=(CTE.periactive&4);
    if(xperi){
      if(dx<0)                { dx-=CTE.xperincx; dy-=CTE.xperincy; dz-=CTE.xperincz; }
      if(dx>=CTE.maprealsizex){ dx+=CTE.xperincx; dy+=CTE.xperincy; dz+=CTE.xperincz; }
    }
    if(yperi){
      if(dy<0)                { dx-=CTE.yperincx; dy-=CTE.yperincy; dz-=CTE.yperincz; }
      if(dy>=CTE.maprealsizey){ dx+=CTE.yperincx; dy+=CTE.yperincy; dz+=CTE.yperincz; }
    }
    if(zperi){
      if(dz<0)                { dx-=CTE.zperincx; dy-=CTE.zperincy; dz-=CTE.zperincz; }
      if(dz>=CTE.maprealsizez){ dx+=CTE.zperincx; dy+=CTE.zperincy; dz+=CTE.zperincz; }
    }
    bool outx=!xperi && (dx<0 || dx>=CTE.maprealsizex);
    bool outy=!yperi && (dy<0 || dy>=CTE.maprealsizey);
    bool outz=!zperi && (dz<0 || dz>=CTE.maprealsizez);
    out=(outx||outy||outz);
    rpos=make_double3(dx+CTE.maprealposminx,dy+CTE.maprealposminy,dz+CTE.maprealposminz);
  }
  //-Guarda posicion actualizada.
  //-Stoes updated position.
  posxy[p]=make_double2(rpos.x,rpos.y);
  posz[p]=rpos.z;
  //-Guarda celda y check.
  //-Stores cell and checks.
  if(outrhop || outmove || out){//-Particle out. Solo las particulas normales (no periodicas) se pueden marcar como excluidas. //-Particle out. Only brands as excluded normal particles (not periodic).
    word rcode=code[p];
    if(outrhop)rcode=CODE_SetOutRhop(rcode);
    else if(out)rcode=CODE_SetOutPos(rcode);
    else rcode=CODE_SetOutMove(rcode);
    code[p]=rcode;
    dcell[p]=0xFFFFFFFF;
  }
  else{//-Particle in
    if(periactive){
      dx=rpos.x-CTE.domposminx;
      dy=rpos.y-CTE.domposminy;
      dz=rpos.z-CTE.domposminz;
    }
    unsigned cx=unsigned(dx/CTE.scell),cy=unsigned(dy/CTE.scell),cz=unsigned(dz/CTE.scell);
    dcell[p]=PC__Cell(CTE.cellcode,cx,cy,cz);
  }
}

//------------------------------------------------------------------------------
/// Devuelve la posicion corregida tras aplicar condiciones periodicas.
/// Returns the corrected position after applying periodic conditions.
//------------------------------------------------------------------------------
__device__ double3 KerUpdatePeriodicPos(double3 ps)
{
  double dx=ps.x-CTE.maprealposminx;
  double dy=ps.y-CTE.maprealposminy;
  double dz=ps.z-CTE.maprealposminz;
  const bool out=(dx!=dx || dy!=dy || dz!=dz || dx<0 || dy<0 || dz<0 || dx>=CTE.maprealsizex || dy>=CTE.maprealsizey || dz>=CTE.maprealsizez);
  //-Ajusta posicion segun condiciones periodicas y vuelve a comprobar los limites del dominio.
  //-Adjusts position according to periodic conditions and rechecks domain limits.
  if(out){
    bool xperi=(CTE.periactive&1),yperi=(CTE.periactive&2),zperi=(CTE.periactive&4);
    if(xperi){
      if(dx<0)                { dx-=CTE.xperincx; dy-=CTE.xperincy; dz-=CTE.xperincz; }
      if(dx>=CTE.maprealsizex){ dx+=CTE.xperincx; dy+=CTE.xperincy; dz+=CTE.xperincz; }
    }
    if(yperi){
      if(dy<0)                { dx-=CTE.yperincx; dy-=CTE.yperincy; dz-=CTE.yperincz; }
      if(dy>=CTE.maprealsizey){ dx+=CTE.yperincx; dy+=CTE.yperincy; dz+=CTE.yperincz; }
    }
    if(zperi){
      if(dz<0)                { dx-=CTE.zperincx; dy-=CTE.zperincy; dz-=CTE.zperincz; }
      if(dz>=CTE.maprealsizez){ dx+=CTE.zperincx; dy+=CTE.zperincy; dz+=CTE.zperincz; }
    }
    ps=make_double3(dx+CTE.maprealposminx,dy+CTE.maprealposminy,dz+CTE.maprealposminz);
  }
  return(ps);
}

//------------------------------------------------------------------------------
/// Actualizacion de posicion de particulas segun desplazamiento.
/// Updates particle position according to displacement.
//------------------------------------------------------------------------------
template<bool periactive,bool floating> __global__ void KerComputeStepPos(unsigned n,unsigned pini
  ,const double2 *movxy,const double *movz
  ,double2 *posxy,double *posz,unsigned *dcell,word *code)
{
  unsigned pt=blockIdx.y*gridDim.x*blockDim.x + blockIdx.x*blockDim.x + threadIdx.x; //-Nº de la partícula
  if(pt<n){
    unsigned p=pt+pini;
    const word rcode=code[p];
    const bool outrhop=(CODE_GetSpecialValue(rcode)==CODE_OUTRHOP);
    const bool fluid=(!floating || CODE_GetType(rcode)==CODE_TYPE_FLUID);
    const bool normal=(!periactive || outrhop || CODE_GetSpecialValue(rcode)==CODE_NORMAL);
    if(normal && fluid){//-No se aplica a particulas periodicas o floating. //-Does not apply to periodic or floating particles.
      const double2 rmovxy=movxy[p];
      KerUpdatePos<periactive>(posxy[p],posz[p],rmovxy.x,rmovxy.y,movz[p],outrhop,p,posxy,posz,dcell,code);
    }
    //-En caso de floating mantiene la posicion original.
	//-In case of floating maintains the original position.
  }
}

//==============================================================================
/// Actualizacion de posicion de particulas segun desplazamiento.
/// Updates particle position according to displacement.
//==============================================================================
void ComputeStepPos(byte periactive,bool floating,unsigned np,unsigned npb
  ,const double2 *movxy,const double *movz
  ,double2 *posxy,double *posz,unsigned *dcell,word *code)
{
  const unsigned pini=npb;
  const unsigned npf=np-pini;
  if(npf){
    dim3 sgrid=GetGridSize(npf,SPHBSIZE);
    if(periactive){ const bool peri=true;
      if(floating)KerComputeStepPos<peri,true>  <<<sgrid,SPHBSIZE>>> (npf,pini,movxy,movz,posxy,posz,dcell,code);
      else        KerComputeStepPos<peri,false> <<<sgrid,SPHBSIZE>>> (npf,pini,movxy,movz,posxy,posz,dcell,code);
    }
    else{ const bool peri=false;
      if(floating)KerComputeStepPos<peri,true>  <<<sgrid,SPHBSIZE>>> (npf,pini,movxy,movz,posxy,posz,dcell,code);
      else        KerComputeStepPos<peri,false> <<<sgrid,SPHBSIZE>>> (npf,pini,movxy,movz,posxy,posz,dcell,code);
    }
  }
}

//------------------------------------------------------------------------------
/// Actualizacion de posicion de particulas segun desplazamiento.
/// Updates particle position according to displacement.
//------------------------------------------------------------------------------
template<bool periactive,bool floating> __global__ void KerComputeStepPos2(unsigned n,unsigned pini
  ,const double2 *posxypre,const double *poszpre,const double2 *movxy,const double *movz
  ,double2 *posxy,double *posz,unsigned *dcell,word *code)
{
  unsigned pt=blockIdx.y*gridDim.x*blockDim.x + blockIdx.x*blockDim.x + threadIdx.x; //-Nº de la partícula //-NI of the particle
  if(pt<n){
    unsigned p=pt+pini;
    const word rcode=code[p];
    const bool outrhop=(CODE_GetSpecialValue(rcode)==CODE_OUTRHOP);
    const bool fluid=(!floating || CODE_GetType(rcode)==CODE_TYPE_FLUID);
    const bool normal=(!periactive || outrhop || CODE_GetSpecialValue(rcode)==CODE_NORMAL);
    if(normal){//-No se aplica a particulas periodicas //-Does not apply to periodic particles.
      if(fluid){//-Solo se aplica desplazamiento al fluido. //-Only applied for fluid displacement.
        const double2 rmovxy=movxy[p];
        KerUpdatePos<periactive>(posxypre[p],poszpre[p],rmovxy.x,rmovxy.y,movz[p],outrhop,p,posxy,posz,dcell,code);
      }
      else{
        posxy[p]=posxypre[p];
        posz[p]=poszpre[p];
      }
    }
  }
}

//==============================================================================
/// Actualizacion de posicion de particulas segun desplazamiento.
/// Updates particle position according to displacement.
[...]
            }
            if(pfin){
              KerMatrixABound (p1,pini,pfin,posxy,posz,posdp1,idp,CTE.massb,CTE.rhopzero,gravity,code,col,row,matrixInd,matrixb,diag,porder,oi,ppedim,npb,irelationg);           
		        }
          }
        }
      }
      else matrixInd[diag]=1.0;
    }
  }
}

void PopulateMatrixA(TpCellMode cellmode
  ,const unsigned bsbound,const unsigned bsfluid,unsigned np,unsigned npb,unsigned npbok
  ,tuint3 ncells,const int2 *begincell,tuint3 cellmin,const unsigned *dcell,tfloat3 gravity,const double2 *posxy
  ,const double *posz,const float4 *velrhop,double *matrixInd,double *matrixb
  ,unsigned int *row,unsigned int *col,const unsigned *porder,const unsigned *idp,const unsigned ppedim
  ,const float *divr,const word *code,const int *irelationg,const float freesurface){
  const unsigned npf=np-npb;
  const int hdiv=(cellmode==CELLMODE_H? 2: 1);
  const uint4 nc=make_uint4(ncells.x,ncells.y,ncells.z,ncells.x*ncells.y);
  const unsigned cellfluid=nc.w*nc.z+1;
  const int3 cellzero=make_int3(cellmin.x,cellmin.y,cellmin.z);
  //-Interaccion Fluid-Fluid & Fluid-Bound
  //-Interaction Fluid-Fluid & Fluid-Bound
  if(npf){
    dim3 sgridf=GetGridSize(npf,bsfluid);
    dim3 sgridb=GetGridSize(npbok,bsbound);
     
		KerPopulateMatrixA <<<sgridf,bsfluid>>> (np,npf,npb,hdiv,nc,cellfluid,begincell,cellzero,dcell,gravity,posxy,posz,velrhop,divr,code,idp,porder,row,col,matrixInd,matrixb,ppedim,npb,irelationg,freesurface);
    KerPopulateMatrixA <<<sgridb,bsbound>>> (np,npbok,0,hdiv,nc,cellfluid,begincell,cellzero,dcell,gravity,posxy,posz,velrhop,divr,code,idp,porder,row,col,matrixInd,matrixb,ppedim,npb,irelationg,freesurface);
  }
}

//==============================================================================
///Free Surface Mark
//==============================================================================
__global__ void KerFreeSurfaceMark
  (unsigned n,unsigned pinit,float *divr,double *matrixInd, double *matrixb,unsigned int *row,const unsigned *porder,const word *code,const double pi,const float freesurface)
{
  unsigned p=blockIdx.y*gridDim.x*blockDim.x + blockIdx.x*blockDim.x + threadIdx.x; //-Nº de la partícula //-NI of the particle
  if(p<n){
      unsigned p1=p+pinit;      //-Nº de particula. //-NI of particle
      if(CODE_GetTypeValue(code[p1])!=1){
        unsigned oi=porder[p1];
        const int Mark=row[oi]+1;
        if(divr[p1]>=freesurface && divr[p1]<=freesurface+0.2f){
          double alpha=0.5*(1.0-cos(pi*double(divr[p1]-freesurface)/0.2));

          matrixb[oi]=matrixb[oi]*alpha;

          for(int index=Mark;index<row[oi+1];index++) matrixInd[index]=matrixInd[index]*alpha;
        }
    }
  }
}

void FreeSurfaceMark(const unsigned bsbound,const unsigned bsfluid,unsigned np,unsigned npb,unsigned npbok,float *divr
  ,double *matrixInd, double *matrixb,unsigned int *row,const unsigned *porder,const word *code,const double pi,const float freesurface){
  const unsigned npf=np-npb;

  if(npf){
    dim3 sgridf=GetGridSize(npf,bsfluid);
    dim3 sgridb=GetGridSize(npbok,bsbound);

    KerFreeSurfaceMark <<<sgridf,bsfluid>>> (npf,npb,divr,matrixInd,matrixb,row,porder,code,pi,freesurface);
    KerFreeSurfaceMark <<<sgridb,bsbound>>> (npbok,0,divr,matrixInd,matrixb,row,porder,code,pi,freesurface);
  }
}

//==============================================================================
/// Pressure Assign
//==============================================================================
//------------------------------------------------------------------------------
///Pressure Assign 
//------------------------------------------------------------------------------
__global__ void KerPressureAssignCode0
  (unsigned np,unsigned n,unsigned pinit,unsigned npb,float4 *velrhop,const word *code,const unsigned *porder,double *press,bool negpresbound)
{
  unsigned p=blockIdx.y*gridDim.x*blockDim.x + blockIdx.x*blockDim.x + threadIdx.x; //-Nº de la partícula //-NI of the particle
  if(p<n){
    unsigned p1=p+pinit;      //-Nº de particula. //-NI of particle
    if((CODE_GetTypeValue(code[p1])!=1)&&porder[p1]!=np){
      velrhop[p1].w=float(press[porder[p1]]);
      if(!negpresbound)if(p1<npb&&velrhop[p1].w<0)velrhop[p1].w=0.0;
    }
  }
}

__global__ void KerPressureAssignCode1
  (unsigned np,unsigned npb,unsigned npbok,unsigned pinit,const tfloat3 gravity,const double2 *posxy,const double *posz
  ,float4 *velrhop,double *press,const unsigned *porder,const unsigned *idp,const word *code,const int *irelationg,const float *divr,const float freesurface)
{
  unsigned p=blockIdx.y*gridDim.x*blockDim.x + blockIdx.x*blockDim.x + threadIdx.x; //-Nº de la partícula //-NI of the particle
  if(p<npbok){
    unsigned p1=p+pinit;      //-Nº de particula. //-NI of particle
    if(CODE_GetTypeValue(code[p1])==1&&porder[p1]!=np){
      //-Obtiene datos basicos de particula p1.
  	  //-Obtains basic data of particle p1.
      double3 posdp1;
      float3 velp1;
      KerGetParticleData(p1,posxy,posz,velrhop,velp1,posdp1);
      
      const unsigned j=irelationg[idp[p1]];
      if(j!=npb){
        unsigned p2k;
        for(int k=int(pinit);k<int(np);k++) if(idp[k]==j){
          p2k=k;
          break;
        }

        const double drz=posz[p2k]-posdp1.z;
        if(divr[p2k])velrhop[p1].w=float(velrhop[p2k].w+double(CTE.rhopzero)*abs(gravity.z)*drz);
        else velrhop[p1].w=float(double(CTE.rhopzero)*abs(gravity.z)*drz);
      }
    }
  }
}

void PressureAssign(const unsigned bsbound,const unsigned bsfluid,unsigned np,unsigned npb,unsigned npbok
  ,const tfloat3 gravity,const double2 *posxy,const double *posz
  ,float4 *velrhop,double *press,const unsigned *porder,const unsigned *idp,const word *code,const int *irelationg,const float *divr,const float freesurface,bool negpresbound){
  const unsigned npf=np-npb;

  if(np){
    dim3 sgridf=GetGridSize(npf,bsfluid);
    dim3 sgridb=GetGridSize(npb,bsbound);

      KerPressureAssignCode0 <<<sgridf,bsfluid>>> (np,npf,npb,npb,velrhop,code,porder,press,negpresbound);
      KerPressureAssignCode0 <<<sgridb,bsbound>>> (np,npbok,0,npb,velrhop,code,porder,press,negpresbound);
      KerPressureAssignCode1 <<<sgridb,bsbound>>> (np,npb,npbok,0,gravity,posxy,posz,velrhop,press,porder,idp,code,irelationg,divr,freesurface); 
  }
}

//==============================================================================
/// Initialises array with the indicated value.
//==============================================================================
__global__ void KerInitArrayPOrder(unsigned n,unsigned *v,unsigned value)
{
  unsigned p=blockIdx.y*gridDim.x*blockDim.x + blockIdx.x*blockDim.x + threadIdx.x; //-Nº de la particula //-NI of the particle
  if(p<n)v[p]=value;
}

void InitArrayPOrder(unsigned n,unsigned *v, unsigned value){
  if(n){
    dim3 sgrid=GetGridSize(n,SPHBSIZE);
    KerInitArrayPOrder <<<sgrid,SPHBSIZE>>> (n,v,value);
  }
}

__global__ void KerInitArrayCol(unsigned n,unsigned int *v,int value)
{
  unsigned p=blockIdx.y*gridDim.x*blockDim.x + blockIdx.x*blockDim.x + threadIdx.x; //-Nº de la particula //-NI of the particle
  if(p<n)v[p]=value;
}
void InitArrayCol(unsigned n,unsigned int *v,int value){
  if(n){
    dim3 sgrid=GetGridSize(n,SPHBSIZE);
    KerInitArrayCol <<<sgrid,SPHBSIZE>>> (n,v,value);
  }
}

//==============================================================================
/// Solve matrix with ViennaCL
//==============================================================================
template<typename MatrixType, typename VectorType, typename SolverTag, typename PrecondTag,typename ScalarType>
void run_solver(MatrixType const & matrix, VectorType const & rhs,SolverTag const & solver, PrecondTag const & precond,viennacl::vector<ScalarType> & vcl_result){ 
  VectorType result(rhs);
  VectorType residual(rhs);
  viennacl::tools::timer timer;
  timer.start();
  result = viennacl::linalg::solve(matrix, rhs, solver, precond);   
  viennacl::backend::finish();  
  std::cout << "  > Solver time: " << timer.get() << std::endl;   
  residual -= viennacl::linalg::prod(matrix, result); 
	double normResidual=viennacl::linalg::norm_2(residual);
  if(normResidual){
		std::cout << "  > Relative residual: " << normResidual / viennacl::linalg::norm_2(rhs) << std::endl;  
		std::cout << "  > Iterations: " << solver.iters() << std::endl;
	}
  viennacl::copy(result,vcl_result);
}

void solveVienna(TpPrecond tprecond,TpAMGInter tamginter,double tolerance,int iterations,float strongconnection,float jacobiweight, int presmooth,int postsmooth,int coarsecutoff,double *matrixa,double *matrixx,double *matrixb,unsigned int *row,unsigned int *col,const unsigned nnz,const unsigned ppedim){
  viennacl::context CudaCtx(viennacl::CUDA_MEMORY);
  typedef double       ScalarType;

  viennacl::compressed_matrix<ScalarType> vcl_A_cuda(row, col, matrixa, viennacl::CUDA_MEMORY, ppedim, ppedim, nnz);
  
  viennacl::vector<ScalarType> vcl_vec(matrixb, viennacl::CUDA_MEMORY, ppedim);
  viennacl::vector<ScalarType> vcl_result(matrixx, viennacl::CUDA_MEMORY, ppedim);

  viennacl::linalg::bicgstab_tag bicgstab(tolerance,iterations);
	if(viennacl::linalg::norm_2(vcl_vec)){
		if(tprecond==PRECOND_Jacobi){
			std::cout<<"JACOBI PRECOND" <<std::endl;
			viennacl::linalg::jacobi_precond< viennacl::compressed_matrix<ScalarType> > vcl_jacobi(vcl_A_cuda,viennacl::linalg::jacobi_tag());
			run_solver(vcl_A_cuda,vcl_vec,bicgstab,vcl_jacobi,vcl_result);
		}
		else if(tprecond==PRECOND_AMG){
			std::cout<<"AMG PRECOND"<<std::endl;

			viennacl::linalg::amg_tag amg_tag_agg_pmis;
			amg_tag_agg_pmis.set_coarsening_method(viennacl::linalg::AMG_COARSENING_METHOD_MIS2_AGGREGATION); std::cout<<"COARSENING: MIS2 AGGREGATION"<<std::endl;
			if(tamginter==AMGINTER_AG){ amg_tag_agg_pmis.set_interpolation_method(viennacl::linalg::AMG_INTERPOLATION_METHOD_AGGREGATION); std::cout<<"INTERPOLATION: AGGREGATION "<<std::endl; }
			else if(tamginter==AMGINTER_SAG){ amg_tag_agg_pmis.set_interpolation_method(viennacl::linalg::AMG_INTERPOLATION_METHOD_SMOOTHED_AGGREGATION); std::cout<<"INTERPOLATION: SMOOTHED AGGREGATION"<<std::endl; }
    
			amg_tag_agg_pmis.set_strong_connection_threshold(strongconnection);
			amg_tag_agg_pmis.set_jacobi_weight(jacobiweight);
			amg_tag_agg_pmis.set_presmooth_steps(presmooth);
			amg_tag_agg_pmis.set_postsmooth_steps(postsmooth);
			amg_tag_agg_pmis.set_coarsening_cutoff(coarsecutoff); 
			viennacl::linalg::amg_precond<viennacl::compressed_matrix<double> > vcl_AMG(vcl_A_cuda, amg_tag_agg_pmis);
			std::cout << " * Setup phase (ViennaCL types)..." << std::endl;
			viennacl::tools::timer timer; 
			timer.start();
			vcl_AMG.setup();
			std::cout << "levels = " << vcl_AMG.levels() << "\n";
			for(int i =0; i< vcl_AMG.levels();i++) std::cout << "level " << i << "\t" << "size = " << vcl_AMG.size(i) << "\n";
			viennacl::backend::finish();
			std::cout << "  > Setup time: " << timer.get() << std::endl;
			run_solver(vcl_A_cuda,vcl_vec,bicgstab,vcl_AMG,vcl_result);
		}
	}
	else std::cout << "norm(b)=0" << std::endl;
}

//------------------------------------------------------------------------------
/// Shifting
//------------------------------------------------------------------------------
template<TpFtMode ftmode> __device__ void KerInteractionForcesShifting2
  (bool boundp2,unsigned p1,const unsigned &pini,const unsigned &pfin,float visco,const float *ftomassp
  ,const double2 *posxy,const double *posz,float4 *velrhop,const word *code
  ,float massp2,float ftmassp1,bool ftp1
  ,double3 posdp1,float3 velp1
  ,TpShifting tshifting,float3 &shiftposp1,float Wab1,const float tensilen, const float tensiler,float &divrp1)
{
  for(int p2=pini;p2<pfin;p2++){
    float drx,dry,drz;
    KerGetParticlesDr(p2,posxy,posz,posdp1,drx,dry,drz);
    float rr2=drx*drx+dry*dry+drz*drz;
    if(rr2<=CTE.fourh2 && rr2>=ALMOSTZERO){
      //-Wendland kernel.
      float frx,fry,frz;
      KerGetKernel(rr2,drx,dry,drz,frx,fry,frz);
	  
      //-Obtiene masa de particula p2 en caso de existir floatings.
	  //-Obtains mass of particle p2 if any floating bodies exist.
      bool ftp2;         //-Indica si es floating. //-indicates if it is floating.
      float ftmassp2;    //-Contiene masa de particula floating o massp2 si es bound o fluid. //-Contains mass of floating body or massf if fluid.
     // bool compute=true; //-Se desactiva cuando se usa DEM y es float-float o float-bound. //-Deactivated when DEM is used and is float-float or float-bound.
      if(USE_FLOATING){
        const word cod=code[p2];
        ftp2=(CODE_GetType(cod)==CODE_TYPE_FLOATING);
        ftmassp2=(ftp2? ftomassp[CODE_GetTypeValue(cod)]: massp2);
        //if(ftp2 && (tdelta==DELTA_Dynamic || tdelta==DELTA_DynamicExt))deltap1=FLT_MAX;
				//if(ftp2 && tshifting==SHIFT_NoBound)shiftposp1.x=FLT_MAX; //-Con floatings anula shifting. //-Cancels shifting with floating bodies
        //compute=!(USE_DEM && ftp1 && (boundp2 || ftp2)); //-Se desactiva cuando se usa DEM y es float-float o float-bound. //-Deactivated when DEM is used and is float-float or float-bound.
      }

      //-Shifting correction
      const float massrhop=(USE_FLOATING? ftmassp2: massp2)/CTE.rhopzero;
      const float tensile=tensilen*powf(KerGetKernelWab(rr2)/Wab1,tensiler);
        //const bool noshift=(boundp2 && (tshifting==SHIFT_NoBound || (tshifting==SHIFT_NoFixed && CODE_GetType(code[p2])==CODE_TYPE_FIXED)));
        shiftposp1.x+=massrhop*(1.0f+tensile)*frx; 
        shiftposp1.y+=massrhop*(1.0f+tensile)*fry;
        shiftposp1.z+=massrhop*(1.0f+tensile)*frz;
        divrp1-=massrhop*(drx*frx+dry*fry+drz*frz);
    }
  }
}

template<TpFtMode ftmode> __global__ void KerInteractionForcesShifting1
  (unsigned n,unsigned pinit,int hdiv,uint4 nc,unsigned cellfluid,float viscob,float viscof
  ,const int2 *begincell,int3 cellzero,const unsigned *dcell,const float *ftomassp
  ,const double2 *posxy,const double *posz,float4 *velrhop,const word *code
  ,TpShifting tshifting,float3 *shiftpos,float *divr,const float tensilen,const float tensiler)
{
  unsigned p=blockIdx.y*gridDim.x*blockDim.x + blockIdx.x*blockDim.x + threadIdx.x; //-Nº de la partícula //-NI of the particle
  if(p<n){
    unsigned p1=p+pinit;      //-Nº de particula. //-NI of particle
    const float Wab1=KerGetKernelWab(CTE.dp*CTE.dp);
    //-Vars para Shifting.
	//-Variables for Shifting.
    float3 shiftposp1=make_float3(0,0,0);
    float  divrp1=0;

    //-Obtiene datos de particula p1 en caso de existir floatings.
	//-Obtains data of particle p1 in case there are floating bodies.
    bool ftp1;       //-Indica si es floating. //-Indicates if it is floating.
    float ftmassp1;  //-Contiene masa de particula floating o 1.0f si es fluid. //-Contains floating particle mass or 1.0f if it is fluid.
    /*if(USE_FLOATING){
      const word cod=code[p1];
      ftp1=(CODE_GetType(cod)==CODE_TYPE_FLOATING);
      ftmassp1=(ftp1? ftomassp[CODE_GetTypeValue(cod)]: 1.f);
      //if(ftp1 && (tdelta==DELTA_Dynamic || tdelta==DELTA_DynamicExt))deltap1=FLT_MAX;
      //if(ftp1 && shift)shiftposp1.x=FLT_MAX;  //-Para floatings no se calcula shifting. //-Shifting is not calculated for floating bodies.
    }*/

    //-Obtiene datos basicos de particula p1.
	//-Obtains basic data of particle p1.
    double3 posdp1;
    float3 velp1;
    KerGetParticleData(p1,posxy,posz,velrhop,velp1,posdp1);

    //-Obtiene limites de interaccion
	//-Obtains interaction limits
    int cxini,cxfin,yini,yfin,zini,zfin;
    KerGetInteractionCells(dcell[p1],hdiv,nc,cellzero,cxini,cxfin,yini,yfin,zini,zfin);

    //-Interaccion con Fluidas.
	//-Interaction with fluids.
    for(int z=zini;z<zfin;z++){
      int zmod=(nc.w)*z+cellfluid; //-Le suma donde empiezan las celdas de fluido. //-The sum showing where fluid cells start
      for(int y=yini;y<yfin;y++){
        int ymod=zmod+nc.x*y;
        unsigned pini,pfin=0;
        for(int x=cxini;x<cxfin;x++){
          int2 cbeg=begincell[x+ymod];
          if(cbeg.y){
            if(!pfin)pini=cbeg.x;
            pfin=cbeg.y;
          }
        }
        if(pfin){
		      KerInteractionForcesShifting2<ftmode> (false,p1,pini,pfin,viscob,ftomassp,posxy,posz,velrhop,code,CTE.massf,ftmassp1,ftp1,posdp1,velp1,tshifting,shiftposp1,Wab1,tensilen,tensiler,divrp1);
        }
	    }
    }

    if(shiftposp1.x||shiftposp1.y||shiftposp1.z||divrp1){
      float3 s=shiftpos[p1];
      s.x+=shiftposp1.x; s.y+=shiftposp1.y; s.z+=shiftposp1.z;
      shiftpos[p1]=s;
      shiftposp1=make_float3(0,0,0);
      divr[p1]+=divrp1;
      divrp1=0;
    }

    //-Interaccion con contorno.
	//-Interaction with boundaries.
    for(int z=zini;z<zfin;z++){
      int zmod=(nc.w)*z;
      for(int y=yini;y<yfin;y++){
        int ymod=zmod+nc.x*y;
        unsigned pini,pfin=0;
        for(int x=cxini;x<cxfin;x++){
          int2 cbeg=begincell[x+ymod];
          if(cbeg.y){
            if(!pfin)pini=cbeg.x;
            pfin=cbeg.y;
          }
        }
        if(pfin){
		      KerInteractionForcesShifting2<ftmode> (true,p1,pini,pfin,viscof,ftomassp,posxy,posz,velrhop,code,CTE.massf,ftmassp1,ftp1,posdp1,velp1,tshifting,shiftposp1,Wab1,tensilen,tensiler,divrp1);
        }
      }
    }
    
    if(shiftposp1.x||shiftposp1.y||shiftposp1.z||divrp1){
      float3 s=shiftpos[p1];
      s.x+=shiftposp1.x; s.y+=shiftposp1.y; s.z+=shiftposp1.z;
      shiftpos[p1]=s;
      divr[p1]+=divrp1;
    }
  }
}

void Interaction_Shifting
  (bool floating,bool usedem,TpCellMode cellmode,float viscob,float viscof,unsigned bsfluid
  ,unsigned np,unsigned npb,unsigned npbok,tuint3 ncells
  ,const int2 *begincell,tuint3 cellmin,const unsigned *dcell
  ,const double2 *posxy,const double *posz
  ,float4 *velrhop,const word *code,const float *ftomassp
  ,TpShifting tshifting,float3 *shiftpos,float *divr,const float tensilen,const float tensiler)
{
  const unsigned npf=np-npb;
  const int hdiv=(cellmode==CELLMODE_H? 2: 1);
  const uint4 nc=make_uint4(ncells.x,ncells.y,ncells.z,ncells.x*ncells.y);
  const unsigned cellfluid=nc.w*nc.z+1;
  const int3 cellzero=make_int3(cellmin.x,cellmin.y,cellmin.z);
  //-Interaccion Fluid-Fluid & Fluid-Bound
  //-Interaction Fluid-Fluid & Fluid-Bound
  if(npf){
    dim3 sgridf=GetGridSize(npf,bsfluid);

    if(!floating)   KerInteractionForcesShifting1<FTMODE_None> <<<sgridf,bsfluid>>> (npf,npb,hdiv,nc,cellfluid,viscob,viscof,begincell,cellzero,dcell,ftomassp,posxy,posz,velrhop,code,tshifting,shiftpos,divr,tensilen,tensiler);
    else if(!usedem)KerInteractionForcesShifting1<FTMODE_Sph> <<<sgridf,bsfluid>>> (npf,npb,hdiv,nc,cellfluid,viscob,viscof,begincell,cellzero,dcell,ftomassp,posxy,posz,velrhop,code,tshifting,shiftpos,divr,tensilen,tensiler);
    else            KerInteractionForcesShifting1<FTMODE_Dem> <<<sgridf,bsfluid>>> (npf,npb,hdiv,nc,cellfluid,viscob,viscof,begincell,cellzero,dcell,ftomassp,posxy,posz,velrhop,code,tshifting,shiftpos,divr,tensilen,tensiler);
  }
}

template<bool floating> __global__ void KerComputeShift
  (unsigned npf,unsigned npb,const float3 *shiftpos,word *code,double2 *movxy,double *movz)
{
  unsigned p=blockIdx.y*gridDim.x*blockDim.x + blockIdx.x*blockDim.x + threadIdx.x; //-Nº de la partícula //-NI of the particle.
  if(p<npf){
    unsigned p1=p+npb;
    const float3 rshiftpos=shiftpos[p1];
    if(!floating || CODE_GetType(code[p1])==CODE_TYPE_FLUID){//-Particulas: Fluid //-Particles: Fluid
      double dx=double(rshiftpos.x);
      double dy=double(rshiftpos.y);
      double dz=double(rshiftpos.z);
      movxy[p1]=make_double2(dx,dy);
      movz[p1]=dz;
    }
  }
}

void ComputeShift(bool floating,const unsigned bsfluid,unsigned np,unsigned npb,const float3 *shiftpos
  ,word *code,double2 *movxy,double *movz)
{
  const unsigned npf=np-npb;
  if(npf){
    dim3 sgridf=GetGridSize(npf,bsfluid);
    if(floating)KerComputeShift<true>  <<<sgridf,bsfluid>>> (npf,npb,shiftpos,code,movxy,movz);
    else        KerComputeShift<false> <<<sgridf,bsfluid>>> (npf,npb,shiftpos,code,movxy,movz);
  }
}
}