/*
 <DUALSPHYSICS>  Copyright (c) 2015, Jose M. Dominguez et al. (see http://dual.sphysics.org/index.php/developers/). 

 EPHYSLAB Environmental Physics Laboratory, Universidade de Vigo, Ourense, Spain.
 School of Mechanical, Aerospace and Civil Engineering, University of Manchester, Manchester, U.K.

 This file is part of DualSPHysics. 

 DualSPHysics is free software: you can redistribute it and/or modify it under the terms of the GNU General Public License as published by
 the Free Software Foundation, either version 3 of the License, or (at your option) any later version. 

 DualSPHysics is distributed in the hope that it will be useful, but WITHOUT ANY WARRANTY; without even the implied warranty of
 MERCHANTABILITY or FITNESS FOR A PARTICULAR PURPOSE.  See the GNU General Public License for more details. 

 You should have received a copy of the GNU General Public License, along with DualSPHysics. If not, see <http://www.gnu.org/licenses/>. 
*/

#include "JSphGpu_ker.h"
#include "JBlockSizeAuto.h"
#include "JLog2.h"
#include <cfloat>
#include <math_constants.h>
//#include "JDgKerPrint.h"
//#include "JDgKerPrint_ker.h"

#pragma warning(disable : 4267) //Cancels "warning C4267: conversion from 'size_t' to 'int', possible loss of data"
#pragma warning(disable : 4244) //Cancels "warning C4244: conversion from 'unsigned __int64' to 'unsigned int', possible loss of data"
#pragma warning(disable : 4503) //Cancels "warning C4503: decorated name length exceeded, name was truncated"
#include <cuda_runtime.h>
#include <thrust/device_vector.h>
#include <thrust/sort.h>


#include <cusp/csr_matrix.h>
#include <cusp/monitor.h>
//#include <cusp/io/matrix_market.h>
#include <cusp/krylov/bicgstab.h>
//#include <cusp/krylov/cg.h>
#include <cusp/precond/diagonal.h>
//#include <cusp/precond/aggregation/smoothed_aggregation.h>
//#include <cusp/print.h>
//#include <cusp/array1d.h>

#include <iostream>
#include <cstdlib>
#include <string>
#include <cuda.h>

#define VIENNACL_WITH_CUDA
#include "viennacl/vector.hpp"
#include "viennacl/compressed_matrix.hpp"
#include "viennacl/linalg/bicgstab.hpp"
#include "viennacl/linalg/gmres.hpp"
#include "viennacl/tools/timer.hpp"
#include "viennacl/linalg/norm_2.hpp"
#include "viennacl/linalg/jacobi_precond.hpp"
#include "viennacl/forwards.h"
#include "viennacl/linalg/amg.hpp"
#include "viennacl/linalg/prod.hpp"

__constant__ StCteInteraction CTE;

namespace cusph{
  
//==============================================================================
/// Comprueba error y finaliza ejecucion.
/// Checks mistake and ends execution.
//==============================================================================
#define CheckErrorCuda(text)  __CheckErrorCuda(text,__FILE__,__LINE__)
void __CheckErrorCuda(const char *text,const char *file,const int line){
  cudaError_t err=cudaGetLastError();
  if(cudaSuccess!=err){
    char cad[2048]; 
    sprintf(cad,"%s (CUDA error: %s -> %s:%i).\n",text,cudaGetErrorString(err),file,line); 
    throw std::string(cad);
  }
}

//==============================================================================
/// Devuelve tamaño de gridsize segun parametros.
/// Returns size of gridsize according to parameters.
//==============================================================================
dim3 GetGridSize(unsigned n,unsigned blocksize){
  dim3 sgrid;//=dim3(1,2,3);
  unsigned nb=unsigned(n+blocksize-1)/blocksize;//-Numero total de bloques a lanzar. //-Total block number to throw.
  sgrid.x=(nb<=65535? nb: unsigned(sqrt(float(nb))));
  sgrid.y=(nb<=65535? 1: unsigned((nb+sgrid.x-1)/sgrid.x));
  sgrid.z=1;
  return(sgrid);
}

//==============================================================================
/// Reduccion mediante maximo de valores float en memoria shared para un warp.
/// Reduction using maximum of float values in shared memory for a warp.
//==============================================================================
template <unsigned blockSize> __device__ void KerReduMaxFloatWarp(volatile float* sdat,unsigned tid) {
  if(blockSize>=64)sdat[tid]=max(sdat[tid],sdat[tid+32]);
  if(blockSize>=32)sdat[tid]=max(sdat[tid],sdat[tid+16]);
  if(blockSize>=16)sdat[tid]=max(sdat[tid],sdat[tid+8]);
  if(blockSize>=8)sdat[tid]=max(sdat[tid],sdat[tid+4]);
  if(blockSize>=4)sdat[tid]=max(sdat[tid],sdat[tid+2]);
  if(blockSize>=2)sdat[tid]=max(sdat[tid],sdat[tid+1]);
}

//==============================================================================
/// ES:
/// Acumula la suma de n valores del vector dat[], guardando el resultado al 
/// principio de res[] (Se usan tantas posiciones del res[] como bloques, 
/// quedando el resultado final en res[0]).
/// - EN:
/// Accumulates the sum of n values of array dat[], storing the result in 
/// the beginning of res[].(Many positions of res[] are used as blocks, 
/// storing the final result in res[0]).
//==============================================================================
template <unsigned blockSize> __global__ void KerReduMaxFloat(unsigned n,unsigned ini,const float *dat,float *res){
  extern __shared__ float sdat[];
  unsigned tid=threadIdx.x;
  unsigned c=blockIdx.y*gridDim.x*blockDim.x + blockIdx.x*blockDim.x + threadIdx.x;
  sdat[tid]=(c<n? dat[c+ini]: -FLT_MAX);
  __syncthreads();
  if(blockSize>=512){ if(tid<256)sdat[tid]=max(sdat[tid],sdat[tid+256]);  __syncthreads(); }
  if(blockSize>=256){ if(tid<128)sdat[tid]=max(sdat[tid],sdat[tid+128]);  __syncthreads(); }
  if(blockSize>=128){ if(tid<64) sdat[tid]=max(sdat[tid],sdat[tid+64]);   __syncthreads(); }
  if(tid<32)KerReduMaxFloatWarp<blockSize>(sdat,tid);
  if(tid==0)res[blockIdx.y*gridDim.x + blockIdx.x]=sdat[0];
}

//==============================================================================
/// ES:
/// Devuelve el maximo de un vector, usando resu[] como vector auxiliar. El tamaño
/// de resu[] debe ser >= a (N/SPHBSIZE+1)+(N/(SPHBSIZE*SPHBSIZE)+SPHBSIZE)
/// - EN:
/// Returns the maximum of an array, using resu[] as auxiliar array.
/// Size of resu[] must be >= a (N/SPHBSIZE+1)+(N/(SPHBSIZE*SPHBSIZE)+SPHBSIZE)
//==============================================================================
float ReduMaxFloat(unsigned ndata,unsigned inidata,float* data,float* resu){
	float resf;
  if(1){
    unsigned n=ndata,ini=inidata;
    unsigned smemSize=SPHBSIZE*sizeof(float);
    dim3 sgrid=GetGridSize(n,SPHBSIZE);
    unsigned n_blocks=sgrid.x*sgrid.y;
    float *dat=data;
    float *resu1=resu,*resu2=resu+n_blocks;
    float *res=resu1;
    while(n>1){
      KerReduMaxFloat<SPHBSIZE><<<sgrid,SPHBSIZE,smemSize>>>(n,ini,dat,res);
      n=n_blocks; ini=0;
      sgrid=GetGridSize(n,SPHBSIZE);  
      n_blocks=sgrid.x*sgrid.y;
      if(n>1){
        dat=res; res=(dat==resu1? resu2: resu1); 
      }
    }
	  
		if(ndata>1)cudaMemcpy(&resf,res,sizeof(float),cudaMemcpyDeviceToHost);
		else cudaMemcpy(&resf,data,sizeof(float),cudaMemcpyDeviceToHost);
  }

	//else{//-Using Thrust library is slower than ReduMasFloat() with ndata < 5M.
  //  thrust::device_ptr<float> dev_ptr(data);
  //  resf=thrust::reduce(dev_ptr,dev_ptr+ndata,-FLT_MAX,thrust::maximum<float>());
  //}
  return(resf);
}

//==============================================================================
/// ES:
/// Acumula la suma de n valores del vector dat[].w, guardando el resultado al 
/// principio de res[] (Se usan tantas posiciones del res[] como bloques, 
/// quedando el resultado final en res[0]).
/// - EN:
/// Accumulates the sum of n values of array dat[], storing the result in 
/// the beginning of res[].(Many positions of res[] are used as blocks, 
/// storing the final result in res[0]).
//==============================================================================
template <unsigned blockSize> __global__ void KerReduMaxFloat_w(unsigned n,unsigned ini,const float4 *dat,float *res){
  extern __shared__ float sdat[];
  unsigned tid=threadIdx.x;
  unsigned c=blockIdx.y*gridDim.x*blockDim.x + blockIdx.x*blockDim.x + threadIdx.x;
  sdat[tid]=(c<n? dat[c+ini].w: -FLT_MAX);
  __syncthreads();
  if(blockSize>=512){ if(tid<256)sdat[tid]=max(sdat[tid],sdat[tid+256]);  __syncthreads(); }
  if(blockSize>=256){ if(tid<128)sdat[tid]=max(sdat[tid],sdat[tid+128]);  __syncthreads(); }
  if(blockSize>=128){ if(tid<64) sdat[tid]=max(sdat[tid],sdat[tid+64]);   __syncthreads(); }
  if(tid<32)KerReduMaxFloatWarp<blockSize>(sdat,tid);
  if(tid==0)res[blockIdx.y*gridDim.x + blockIdx.x]=sdat[0];
}

//==============================================================================
/// ES:
/// Devuelve el maximo de la componente w de un vector float4, usando resu[] como 
/// vector auxiliar. El tamaño de resu[] debe ser >= a (N/SPHBSIZE+1)+(N/(SPHBSIZE*SPHBSIZE)+SPHBSIZE)
/// - EN:
/// Returns the maximum of an array, using resu[] as auxiliar array.
/// Size of resu[] must be >= a (N/SPHBSIZE+1)+(N/(SPHBSIZE*SPHBSIZE)+SPHBSIZE)
//==============================================================================
float ReduMaxFloat_w(unsigned ndata,unsigned inidata,float4* data,float* resu){
  unsigned n=ndata,ini=inidata;
  unsigned smemSize=SPHBSIZE*sizeof(float);
  dim3 sgrid=GetGridSize(n,SPHBSIZE);
  unsigned n_blocks=sgrid.x*sgrid.y;
  float *dat=NULL;
  float *resu1=resu,*resu2=resu+n_blocks;
  float *res=resu1;
  while(n>1){
    if(!dat)KerReduMaxFloat_w<SPHBSIZE><<<sgrid,SPHBSIZE,smemSize>>>(n,ini,data,res);
    else KerReduMaxFloat<SPHBSIZE><<<sgrid,SPHBSIZE,smemSize>>>(n,ini,dat,res);
    n=n_blocks; ini=0;
    sgrid=GetGridSize(n,SPHBSIZE);  
    n_blocks=sgrid.x*sgrid.y;
    if(n>1){
      dat=res; res=(dat==resu1? resu2: resu1); 
    }
  }
  float resf;
  if(ndata>1)cudaMemcpy(&resf,res,sizeof(float),cudaMemcpyDeviceToHost);
  else{
    float4 resf4;
    cudaMemcpy(&resf4,data,sizeof(float4),cudaMemcpyDeviceToHost);
    resf=resf4.w;
  }
  return(resf);
}

//==============================================================================
/// Graba constantes para la interaccion a la GPU.
/// Stores constants for the GPU interaction.
//==============================================================================
void CteInteractionUp(const StCteInteraction *cte){
  cudaMemcpyToSymbol(CTE,cte,sizeof(StCteInteraction));
}

//------------------------------------------------------------------------------
/// Inicializa array con el valor indicado.
/// Initialises array with the indicated value.
//------------------------------------------------------------------------------
__global__ void KerInitArray(unsigned n,float3 *v,float3 value)
{
  unsigned p=blockIdx.y*gridDim.x*blockDim.x + blockIdx.x*blockDim.x + threadIdx.x; //-Nº de la particula //-NI of the particle
  if(p<n)v[p]=value;
}

//==============================================================================
/// Inicializa array con el valor indicado.
/// Initialises array with the indicated value.
//==============================================================================
void InitArray(unsigned n,float3 *v,tfloat3 value){
  if(n){
    dim3 sgrid=GetGridSize(n,SPHBSIZE);
    KerInitArray <<<sgrid,SPHBSIZE>>> (n,v,Float3(value));
  }
}

//------------------------------------------------------------------------------
/// Pone v[].y a cero.
/// Sets v[].y to zero.
//------------------------------------------------------------------------------
__global__ void KerResetVely(unsigned npb,unsigned npf,float4 *v)
{
  unsigned p=blockIdx.y*gridDim.x*blockDim.x + blockIdx.x*blockDim.x + threadIdx.x; //-Nº de la partícula //-NI of the particle
  if(p<npf)v[p+npb].y=0;
}

//==============================================================================
// Pone v[].y a cero.
/// Sets v[].y to zero.
//==============================================================================
void ResetVely(unsigned npb,unsigned npf,float4 *v){
  if(npf){
    dim3 sgrid=GetGridSize(npf,SPHBSIZE);
    KerResetVely <<<sgrid,SPHBSIZE>>> (npb,npf,v);
  }
}

//------------------------------------------------------------------------------
/// Pone v[].y a cero.
/// Sets v[].y to zero.
//------------------------------------------------------------------------------
__global__ void KerResetAcey(unsigned npf,float3 *v)
{
  unsigned p=blockIdx.y*gridDim.x*blockDim.x + blockIdx.x*blockDim.x + threadIdx.x; //-Nº de la partícula //-NI of the particle
  if(p<npf)v[p].y=0;
}

//==============================================================================
// Pone v[].y a cero.
/// Sets v[].y to zero.
//==============================================================================
void ResetAcey(unsigned npf,float3 *v){
  if(npf){
    dim3 sgrid=GetGridSize(npf,SPHBSIZE);
    KerResetAcey <<<sgrid,SPHBSIZE>>> (npf,v);
  }
}

__global__ void KerResetBoundVel(unsigned n,float4 *vel,float4 *velpre)
{
  unsigned p=blockIdx.y*gridDim.x*blockDim.x + blockIdx.x*blockDim.x + threadIdx.x; //-Nº de la partícula //-NI of the particle
  if(p<n){
		vel[p].x=velpre[p].x;
		vel[p].y=velpre[p].y;
		vel[p].z=velpre[p].z;
	}
}
void ResetBoundVel(const unsigned npbok,const unsigned bsbound,float4 *vel,float4 *velpre){
  if(npbok){
    dim3 sgridb=GetGridSize(npbok,bsbound);
    KerResetBoundVel <<<sgridb,bsbound>>> (npbok,vel,velpre);
  }
}

__global__ void KerResetrowIndg(const unsigned npplus,unsigned *row,const unsigned npb)
{
  unsigned p=blockIdx.y*gridDim.x*blockDim.x + blockIdx.x*blockDim.x + threadIdx.x; //-Nº de la partícula //-NI of the particle
  if(p<npplus){
		row[p]=npb;
	}
}

void ResetrowIndg(const unsigned npplus,unsigned *row,const unsigned npb){
	if(npplus){
    dim3 sgrid=GetGridSize(npplus,SPHBSIZE);
    KerResetrowIndg <<<sgrid,SPHBSIZE>>> (npplus,row,npb);
  }
}
//------------------------------------------------------------------------------
/// Calculates module^2 of ace.
//------------------------------------------------------------------------------
__global__ void KerComputeAceMod(unsigned n,const float3 *ace,float *acemod)
{
  unsigned p=blockIdx.y*gridDim.x*blockDim.x + blockIdx.x*blockDim.x + threadIdx.x; //-Number of particle.
  if(p<n){
    const float3 r=ace[p];
    acemod[p]=r.x*r.x+r.y*r.y+r.z*r.z;
  }
}

//==============================================================================
/// Calculates module^2 of ace.
//==============================================================================
void ComputeAceMod(unsigned n,const float3 *ace,float *acemod){
  if(n){
    dim3 sgrid=GetGridSize(n,SPHBSIZE);
    KerComputeAceMod <<<sgrid,SPHBSIZE>>> (n,ace,acemod);
  }
}

//------------------------------------------------------------------------------
/// Calculates module^2 of ace, comprobando que la particula sea normal.
//------------------------------------------------------------------------------
__global__ void KerComputeAceMod(unsigned n,const word *code,const float3 *ace,float *acemod)
{
  unsigned p=blockIdx.y*gridDim.x*blockDim.x + blockIdx.x*blockDim.x + threadIdx.x; //-Number of particle.
  if(p<n){
    const float3 r=(CODE_GetSpecialValue(code[p])==CODE_NORMAL? ace[p]: make_float3(0,0,0));
    acemod[p]=r.x*r.x+r.y*r.y+r.z*r.z;
  }
}

//==============================================================================
/// Calculates module^2 of ace, comprobando que la particula sea normal.
//==============================================================================
void ComputeAceMod(unsigned n,const word *code,const float3 *ace,float *acemod){
  if(n){
    dim3 sgrid=GetGridSize(n,SPHBSIZE);
    KerComputeAceMod <<<sgrid,SPHBSIZE>>> (n,code,ace,acemod);
  }
}


//##############################################################################
//# Otros kernels...
//# Other kernels...
//##############################################################################
//------------------------------------------------------------------------------
/// Calculates module^2 of vel.
//------------------------------------------------------------------------------
__global__ void KerComputeVelMod(unsigned n,const float4 *vel,float *velmod)
{
  unsigned p=blockIdx.y*gridDim.x*blockDim.x + blockIdx.x*blockDim.x + threadIdx.x; //-Number of particle.
  if(p<n){
    const float4 r=vel[p];
    velmod[p]=r.x*r.x+r.y*r.y+r.z*r.z;
  }
}

//==============================================================================
/// Calculates module^2 of vel.
//==============================================================================
void ComputeVelMod(unsigned n,const float4 *vel,float *velmod){
  if(n){
    dim3 sgrid=GetGridSize(n,SPHBSIZE);
    KerComputeVelMod <<<sgrid,SPHBSIZE>>> (n,vel,velmod);
  }
}

//##############################################################################
//# Kernels auxiliares para interaccion.
//# Auxiliary kernels for the interaction.
//##############################################################################
//------------------------------------------------------------------------------
/// Devuelve posicion y vel de particula.
/// Returns postion and vel of a particle.
//------------------------------------------------------------------------------
__device__ void KerGetParticleData(unsigned p1
  ,const double2 *posxy,const double *posz,const float4 *velrhop
  ,float3 &velp1,double3 &posdp1)
{
  float4 r=velrhop[p1];
  velp1=make_float3(r.x,r.y,r.z);

  double2 pxy=posxy[p1];
  posdp1=make_double3(pxy.x,pxy.y,posz[p1]);
}

//------------------------------------------------------------------------------
/// Devuelve drx, dry y drz entre dos particulas.
/// Returns drx, dry and drz between the particles.
//------------------------------------------------------------------------------
__device__ void KerGetParticlesDr(int p2
  ,const double2 *posxy,const double *posz,const double3 &posdp1
  ,float &drx,float &dry,float &drz)
{
  double2 posp2=posxy[p2];
  drx=float(posdp1.x-posp2.x);
  dry=float(posdp1.y-posp2.y);
  drz=float(posdp1.z-posz[p2]);
}

//------------------------------------------------------------------------------
/// Devuelve limites de celdas para interaccion.
/// Returns cell limits for the interaction.
//------------------------------------------------------------------------------
__device__ void KerGetInteractionCells(unsigned rcell
  ,int hdiv,const uint4 &nc,const int3 &cellzero
  ,int &cxini,int &cxfin,int &yini,int &yfin,int &zini,int &zfin)
{
  //-Obtiene limites de interaccion
  //-Obtains interaction limits.
  const int cx=PC__Cellx(CTE.cellcode,rcell)-cellzero.x;
  const int cy=PC__Celly(CTE.cellcode,rcell)-cellzero.y;
  const int cz=PC__Cellz(CTE.cellcode,rcell)-cellzero.z;
  //-Codigo para hdiv 1 o 2 pero no cero.
  //-Code for hdiv 1 or 2 but not zero.
  cxini=cx-min(cx,hdiv);
  cxfin=cx+min(nc.x-cx-1,hdiv)+1;
  yini=cy-min(cy,hdiv);
  yfin=cy+min(nc.y-cy-1,hdiv)+1;
  zini=cz-min(cz,hdiv);
  zfin=cz+min(nc.z-cz-1,hdiv)+1;
}

//------------------------------------------------------------------------------
/// Devuelve limites de celdas para interaccion.
/// Returns cell limits for the interaction.
//------------------------------------------------------------------------------
__device__ void KerGetInteractionCells(double px,double py,double pz
  ,int hdiv,const uint4 &nc,const int3 &cellzero
  ,int &cxini,int &cxfin,int &yini,int &yfin,int &zini,int &zfin)
{
  //-Obtiene limites de interaccion
  //-Obtains interaction limits.
  const int cx=int((px-CTE.domposminx)/CTE.scell)-cellzero.x;
  const int cy=int((py-CTE.domposminy)/CTE.scell)-cellzero.y;
  const int cz=int((pz-CTE.domposminz)/CTE.scell)-cellzero.z;
  //-Codigo para hdiv 1 o 2 pero no cero.
  //-Code for hdiv 1 or 2 but not zero.
  cxini=cx-min(cx,hdiv);
  cxfin=cx+min(nc.x-cx-1,hdiv)+1;
  yini=cy-min(cy,hdiv);
  yfin=cy+min(nc.y-cy-1,hdiv)+1;
  zini=cz-min(cz,hdiv);
  zfin=cz+min(nc.z-cz-1,hdiv)+1;
}

//------------------------------------------------------------------------------
/// Devuelve valores de kernel: frx, fry y frz. USADA
/// Returns kernel values: frx, fry and frz. USED
//------------------------------------------------------------------------------
__device__ void KerGetKernelQuintic(float rr2,float drx,float dry,float drz
  ,float &frx,float &fry,float &frz)
{
  const float rad=sqrt(rr2);
  const float qq=rad/CTE.h;
  const float Bwen=CTE.bwen;

	//-Quintic Spline
  float fac;
  if(qq<1.0f)fac=Bwen*(-5.0f*powf(3.0f-qq,4.0f)+30.0f*powf(2.0f-qq,4.0f)-75.0f*powf(1.0f-qq,4.0f));
  else if(qq<2.0f)fac=Bwen*(-5.0f*powf(3.0f-qq,4.0f)+30.0f*powf(2.0f-qq,4.0f));
  else if(qq<3.0f)fac=Bwen*(-5.0f*powf(3.0f-qq,4.0f));
  else fac=0;
  fac=fac/rad;

  frx=fac*drx; fry=fac*dry; frz=fac*drz;

}

__device__ void KerGetKernelWendland(float rr2,float drx,float dry,float drz
  ,float &frx,float &fry,float &frz)
{
  const float rad=sqrt(rr2);
  const float qq=rad/CTE.h;

  //-Wendland kernel.
  const float wqq1=1.f-0.5f*qq;
  const float fac=CTE.bwen*qq*wqq1*wqq1*wqq1/rad;

  frx=fac*drx; fry=fac*dry; frz=fac*drz;
}

//------------------------------------------------------------------------------
/// Devuelve valores de kernel: wab.
/// returns kernel values: wab.
//------------------------------------------------------------------------------
__device__ float KerGetKernelQuinticWab(float rr2)
{
  const float rad=sqrt(rr2);
  const float qq=rad/CTE.h;
	const float Awen=CTE.awen;

	//-Quintic Spline
  float wab;
  if(qq<1.0f)wab=Awen*(powf(3.0f-qq,5.0f)-6.0f*powf(2.0f-qq,5.0f)+15.0f*powf(1.0f-qq,5.0f));
  else if(qq<2.0f)wab=Awen*(powf(3.0f-qq,5.0f)-6.0f*powf(2.0f-qq,5.0f));
  else if(qq<3.0f)wab=Awen*(powf(3.0f-qq,5.0f));
  else wab=0;
  return(wab);
}

__device__ float KerGetKernelWendlandWab(float rr2)
{
  const float rad=sqrt(rr2);
  const float qq=rad/CTE.h;

  //-Wendland kernel.
  const float wqq=2.f*qq+1.f;
  const float wqq1=1.f-0.5f*qq;
  const float wqq2=wqq1*wqq1;

  return(CTE.awen*wqq*wqq2*wqq2);
}

template<TpKernel tker> __device__ void KerCalculateMLS3D
  (const unsigned &pini,const unsigned &pfin,const double2 *posxy,const double *posz
	,const double3 posdp1,const float mass,double &b11,double &b12,double &b13,double &b14
	,double &b22,double &b23,double &b24,double &b33,double &b34,double &b44)
{
	const float volume=mass/CTE.rhopzero;
	for(int p2=pini;p2<pfin;p2++){
    float drx,dry,drz;
    KerGetParticlesDr(p2,posxy,posz,posdp1,drx,dry,drz);
    float rr2=drx*drx+dry*dry+drz*drz;
    if(rr2<=CTE.fourh2 && rr2>=ALMOSTZERO){
			float Wab;
			if(tker==KERNEL_Quintic) Wab=KerGetKernelQuinticWab(rr2);
			else if(tker==KERNEL_Wendland) Wab=KerGetKernelWendlandWab(rr2);
			const double temp=Wab*volume;
			b11+= temp;		b12+=drx*temp;			b13+=dry*temp;			b14+=drz*temp;			
										b22+=drx*drx*temp;	b23+=drx*dry*temp;	b24+=drx*drz*temp;
																				b33+=dry*dry*temp;  b34+=dry*drz*temp;
																														b44+=drz*drz*temp;
		}
	}
}

template<TpKernel tker> __global__ void KerMLSBoundary3D
  (unsigned n,int hdiv,uint4 nc,const int2 *begincell,int3 cellzero,const unsigned *dcell,
	const double2 *posxy,const double *posz,const word *code,const unsigned *idp,
	const double3 *mirrorPos,const unsigned *mirrorCell,float4 *mls)
{
	unsigned p1=blockIdx.y*gridDim.x*blockDim.x + blockIdx.x*blockDim.x + threadIdx.x; //-Nº de la partícula //-NI of particle.
  if(p1<n){
		unsigned idpg1=idp[p1];
		const double3 posmp1=make_double3(mirrorPos[idpg1].x,mirrorPos[idpg1].y,mirrorPos[idpg1].z);
		double b11=0.0; double b12=0.0; double b13=0.0; double b14=0.0;
		double b21=0.0; double b22=0.0; double b23=0.0; double b24=0.0;
		double b31=0.0; double b32=0.0; double b33=0.0; double b34=0.0;
		double b41=0.0; double b42=0.0; double b43=0.0; double b44=0.0;

		int cxini,cxfin,yini,yfin,zini,zfin;
		KerGetInteractionCells(mirrorCell[idpg1],hdiv,nc,cellzero,cxini,cxfin,yini,yfin,zini,zfin);
				
		for(int z=zini;z<zfin;z++){
			int zmod=(nc.w)*z+(nc.w*nc.z+1);//-Le suma Nct+1 que es la primera celda de fluido. //-Adds Nct + 1 which is the first cell fluid.	
			for(int y=yini;y<yfin;y++){
				int ymod=zmod+nc.x*y;
				unsigned pini,pfin=0;
				for(int x=cxini;x<cxfin;x++){
					int2 cbeg=begincell[x+ymod];
					if(cbeg.y){
						if(!pfin)pini=cbeg.x;
						pfin=cbeg.y;
					}
				}
				if(pfin) KerCalculateMLS3D<tker> (pini,pfin,posxy,posz,posmp1,CTE.massf,b11,b12,b13,b14,b22,b23,b24,b33,b34,b44);
			}
		}

		b21=b12; b31=b13; b32=b23; b41=b14; b42=b24; b43=b34;

		double det=0;
		det+=(b11*b22*b33*b44 + b11*b23*b34*b42 + b11*b24*b32*b43);
		det+=(b12*b21*b34*b43 + b12*b23*b31*b44 + b12*b24*b33*b41);
		det+=(b13*b21*b32*b44 + b13*b22*b34*b41 + b13*b24*b31*b42);
		det+=(b14*b21*b33*b42 + b14*b22*b31*b43 + b14*b23*b32*b41);
		det-=(b11*b22*b34*b43 + b11*b23*b32*b44 + b11*b24*b33*b42);
		det-=(b12*b21*b33*b44 + b12*b23*b34*b41 + b12*b24*b31*b43);
		det-=(b13*b21*b34*b42 + b13*b22*b31*b44 + b13*b24*b32*b41);
		det-=(b14*b21*b32*b43 + b14*b22*b33*b41 + b14*b23*b31*b42);
	
		if(det){
			mls[p1].w=float((b22*b33*b44+b23*b34*b42+b24*b32*b43-b22*b34*b43-b23*b32*b44-b24*b33*b42)/det);
			mls[p1].x=float((b21*b34*b43+b23*b31*b44+b24*b33*b41-b21*b33*b44-b23*b34*b41-b24*b31*b43)/det);
			mls[p1].y=float((b21*b32*b44+b22*b34*b41+b24*b31*b42-b21*b34*b42-b22*b31*b44-b24*b32*b41)/det);
			mls[p1].z=float((b21*b33*b42+b22*b31*b43+b23*b32*b41-b21*b32*b43-b22*b33*b41-b23*b31*b42)/det);
		}
	}
}

template<TpKernel tker> __device__ void KerCalculateMLS2D
  (const unsigned &pini,const unsigned &pfin,const double2 *posxy,const double *posz
	,const double3 posdp1,const float mass,double &b11,double &b12,double &b13,double &b22
	,double &b23,double &b33)
{
	const float volume=mass/CTE.rhopzero;
	for(int p2=pini;p2<pfin;p2++){
    float drx,dry,drz;
    KerGetParticlesDr(p2,posxy,posz,posdp1,drx,dry,drz);
    float rr2=drx*drx+dry*dry+drz*drz;
    if(rr2<=CTE.fourh2 && rr2>=ALMOSTZERO){
			float Wab;
			if(tker==KERNEL_Quintic) Wab=KerGetKernelQuinticWab(rr2);
			else if(tker==KERNEL_Wendland) Wab=KerGetKernelWendlandWab(rr2);

			const double temp=Wab*volume;
			b11+= temp;		b12+=drx*temp;			b13+=drz*temp;
										b22+=drx*drx*temp;	b23+=drx*drz*temp;
																				b33+=drz*drz*temp;
		}
	}
}

template<TpKernel tker> __global__ void KerMLSBoundary2D
  (unsigned n,int hdiv,uint4 nc,const int2 *begincell,int3 cellzero,const unsigned *dcell,
	const double2 *posxy,const double *posz,const word *code,const unsigned *idp,
	const double3 *mirrorPos,const unsigned *mirrorCell,float4 *mls)
{
	unsigned p1=blockIdx.y*gridDim.x*blockDim.x + blockIdx.x*blockDim.x + threadIdx.x; //-Nº de la partícula //-NI of particle.
  if(p1<n){
		unsigned idpg1=idp[p1];
		const double3 posmp1=make_double3(mirrorPos[idpg1].x,mirrorPos[idpg1].y,mirrorPos[idpg1].z);
		double b11 = 0.0; double b12 = 0.0; double b13 = 0.0;
		double b21 = 0.0; double b22 = 0.0; double b23 = 0.0;
		double b31 = 0.0; double b32 = 0.0; double b33 = 0.0;

		int cxini,cxfin,yini,yfin,zini,zfin;
		KerGetInteractionCells(mirrorCell[idpg1],hdiv,nc,cellzero,cxini,cxfin,yini,yfin,zini,zfin);
				
		for(int z=zini;z<zfin;z++){
			int zmod=(nc.w)*z+(nc.w*nc.z+1);//-Le suma Nct+1 que es la primera celda de fluido. //-Adds Nct + 1 which is the first cell fluid.	
			for(int y=yini;y<yfin;y++){
				int ymod=zmod+nc.x*y;
				unsigned pini,pfin=0;
				for(int x=cxini;x<cxfin;x++){
					int2 cbeg=begincell[x+ymod];
					if(cbeg.y){
						if(!pfin)pini=cbeg.x;
						pfin=cbeg.y;
					}
				}
				if(pfin) KerCalculateMLS2D<tker> (pini,pfin,posxy,posz,posmp1,CTE.massf,b11,b12,b13,b22,b23,b33);
			}
		}

		b21=b12; b31=b13; b32=b23;
		
		double det = (b11*b22*b33+b12*b23*b31+b21*b32*b13)-(b31*b22*b13+b21*b12*b33+b23*b32*b11);
		
		if(det){
			mls[p1].w=float((b22*b33-b23*b32)/det);
			mls[p1].x=-float((b21*b33-b23*b31)/det);
			mls[p1].y=0.0;
			mls[p1].z=float((b21*b32-b22*b31)/det);
		}
	}
}

//------------------------------------------------------------------------------
///  Inverse Kernel Correction Matrix
//------------------------------------------------------------------------------
__global__ void KerInverseKernelCor2D(unsigned n,unsigned pinit,float3 *dwxcorrg,float3 *dwzcorrg,const word *code)
{
  unsigned p=blockIdx.y*gridDim.x*blockDim.x + blockIdx.x*blockDim.x + threadIdx.x; //-Nº de la partícula //-NI of the particle
  if(p<n){
		double3 dwx; dwx.x=dwxcorrg[p].x; dwx.y=dwxcorrg[p].y; dwx.z=dwxcorrg[p].z;
		double3 dwz; dwz.x=dwzcorrg[p].x; dwz.y=dwzcorrg[p].y; dwz.z=dwzcorrg[p].z;
		const double det=1.0/(dwx.x*dwz.z-dwz.x*dwx.z);
	
    if(det){
      dwxcorrg[p].x=float(dwz.z*det);
	    dwxcorrg[p].z=-float(dwx.z*det); 
	    dwzcorrg[p].x=-float(dwz.x*det);
	    dwzcorrg[p].z=float(dwx.x*det);
	  }
  }
}

__global__ void KerInverseKernelCor3D(unsigned n,unsigned pinit,float3 *dwxcorrg,float3 *dwycorrg,float3 *dwzcorrg,const word *code)
{
  unsigned p=blockIdx.y*gridDim.x*blockDim.x + blockIdx.x*blockDim.x + threadIdx.x; //-Nº de la partícula //-NI of the particle
  if(p<n){
		double3 dwx; dwx.x=dwxcorrg[p].x; dwx.y=dwxcorrg[p].y; dwx.z=dwxcorrg[p].z; //  dwx.x   dwx.y   dwx.z
		double3 dwy; dwy.x=dwycorrg[p].x; dwy.y=dwycorrg[p].y; dwy.z=dwycorrg[p].z; //  dwy.x   dwy.y   dwy.z
		double3 dwz; dwz.x=dwzcorrg[p].x; dwz.y=dwzcorrg[p].y; dwz.z=dwzcorrg[p].z; //  dwz.x   dwz.y   dwz.z

		const double det=(dwx.x*dwy.y*dwz.z+dwx.y*dwy.z*dwz.x+dwy.x*dwz.y*dwx.z)-(dwz.x*dwy.y*dwx.z+dwy.x*dwx.y*dwz.z+dwy.z*dwz.y*dwx.x);
		dwxcorrg[p].x=float((dwy.y*dwz.z-dwy.z*dwz.y)/det);
		dwxcorrg[p].y=-float((dwx.y*dwz.z-dwx.z*dwz.y)/det);
		dwxcorrg[p].z=float((dwx.y*dwy.z-dwx.z*dwy.y)/det);
		dwycorrg[p].x=-float((dwy.x*dwz.z-dwy.z*dwz.x)/det);
		dwycorrg[p].y=float((dwx.x*dwz.z-dwx.z*dwz.x)/det);
		dwycorrg[p].z=-float((dwx.x*dwy.z-dwx.z*dwy.x)/det);
		dwzcorrg[p].x=float((dwy.x*dwz.y-dwy.y*dwz.x)/det);
		dwzcorrg[p].y=-float((dwx.x*dwz.y-dwx.y*dwz.x)/det);
		dwzcorrg[p].z=float((dwx.x*dwy.y-dwx.y*dwy.x)/det);
  }
}

//##############################################################################
//# Kernels para calculo de fuerzas (Pos-Double)
//# Kernels for calculating forces (Pos-Double)
//##############################################################################
//------------------------------------------------------------------------------
/// Realiza la interaccion de una particula con un conjunto de ellas. Bound-Fluid/Float
/// Interaction of a particle with a set of particles (Bound-Fluid).
//------------------------------------------------------------------------------
template<TpKernel tker> __device__ void KerCalculateMirrorVel
  (const unsigned fluid,const unsigned &pini,const unsigned &pfin,const double2 *posxy,const double *posz
	,const float mass,const float rhop,float4 *velrhop,double3 posdp1,float3 &Sum,float &divrp1,const float4 mlsp1, unsigned &rowCount)
{
	const float volume=mass/rhop;
	for(int p2=pini;p2<pfin;p2++){
    float drx,dry,drz;
    KerGetParticlesDr(p2,posxy,posz,posdp1,drx,dry,drz);
    float rr2=drx*drx+dry*dry+drz*drz;
    if(rr2<=CTE.fourh2 && rr2>=ALMOSTZERO){
			//-Wendland kernel
      float frx,fry,frz;
      if(tker==KERNEL_Quintic) KerGetKernelQuintic(rr2,drx,dry,drz,frx,fry,frz);
			else if(tker==KERNEL_Wendland) KerGetKernelWendland(rr2,drx,dry,drz,frx,fry,frz);
			const float rDivW=drx*frx+dry*fry+drz*frz;//R.Div(W)
			divrp1-=volume*rDivW;
			if(fluid){
				const float4 velrhop2=velrhop[p2];
				float Wab;
				if(tker==KERNEL_Quintic) Wab=KerGetKernelQuinticWab(rr2);
				else if(tker==KERNEL_Wendland) Wab=KerGetKernelWendlandWab(rr2);
				const float temp=(mlsp1.w+mlsp1.x*drx+mlsp1.y*dry+mlsp1.z*drz)*Wab;
				Sum.x+=velrhop2.x*temp*volume;
				Sum.y+=velrhop2.y*temp*volume;
				Sum.z+=velrhop2.z*temp*volume;
				rowCount++;
			}
		}
	}
}

//------------------------------------------------------------------------------
/// Realiza interaccion entre particulas. Bound-Fluid/Float
/// Particle interaction. Bound-Fluid/Float
//------------------------------------------------------------------------------
template<TpKernel tker> __global__ void KerInteractionForcesBound
  (bool simulate2d,TpSlipCond tslipcond,unsigned n,int hdiv,uint4 nc,const int2 *begincell,int3 cellzero,const unsigned *dcell,
	const float *ftomassp,const double2 *posxy,const double *posz,float4 *velrhop,const word *code,const unsigned *idp,
	float *divr,const double3 *mirrorPos,const unsigned *mirrorCell,const float4 *mls,unsigned *row,const double pistonposx)
{
  unsigned p1=blockIdx.y*gridDim.x*blockDim.x + blockIdx.x*blockDim.x + threadIdx.x; //-Nº de la partícula //-NI of particle.
  if(p1<n){
		//-Carga datos de particula p1.
		//-Loads particle p1 data.
    double3 posdp1;
    float3 velp1;
    KerGetParticleData(p1,posxy,posz,velrhop,velp1,posdp1);
    unsigned idpg1=idp[p1];
		float3 Sum=make_float3(0,0,0);
		float divrp1=0;
		const float4 mlsp1=mls[p1];
		unsigned rowCount=0;
		const double3 posmp1=make_double3(mirrorPos[idpg1].x,mirrorPos[idpg1].y,mirrorPos[idpg1].z);
			
		int cxini,cxfin,yini,yfin,zini,zfin;
		KerGetInteractionCells(mirrorCell[idpg1],hdiv,nc,cellzero,cxini,cxfin,yini,yfin,zini,zfin);
				
		for(int fluid=0;fluid<=1;fluid++){
			for(int z=zini;z<zfin;z++){
				int zmod=(nc.w)*z+(nc.w*nc.z+1)*fluid;//-Le suma Nct+1 que es la primera celda de fluido. //-Adds Nct + 1 which is the first cell fluid.	
				for(int y=yini;y<yfin;y++){
					int ymod=zmod+nc.x*y;
					unsigned pini,pfin=0;
					for(int x=cxini;x<cxfin;x++){
						int2 cbeg=begincell[x+ymod];
						if(cbeg.y){
							if(!pfin)pini=cbeg.x;
							pfin=cbeg.y;
						}
					}
					float mass;
					if(fluid) mass=CTE.massf;
					else mass=CTE.massb;
					if(pfin) KerCalculateMirrorVel<tker> (fluid,pini,pfin,posxy,posz,mass,CTE.rhopzero,velrhop,posmp1,Sum,divrp1,mlsp1,rowCount);
				}
			}
		}

		divr[p1]=divrp1;
		row[p1]=rowCount;

		if(tslipcond==SLIPCOND_Slip){
			float3 NormDir=make_float3(0,0,0) ,NormVel=make_float3(0,0,0),TangDir=make_float3(0,0,0),TangVel=make_float3(0,0,0),BitangDir=make_float3(0,0,0),BitangVel=make_float3(0,0,0); 
			NormDir.x=float(posmp1.x-posxy[p1].x);
			if(!simulate2d)NormDir.y=float(posmp1.y-posxy[p1].y);
			NormDir.z=float(posmp1.z-posz[p1]);

			TangDir.x=NormDir.z+NormDir.y;
			if(!simulate2d)TangDir.y=-(NormDir.x+NormDir.z);
			TangDir.z=-NormDir.x+NormDir.y;

			BitangDir.x=TangDir.y*NormDir.z-NormDir.y*TangDir.z;
			if(!simulate2d)BitangDir.y=NormDir.x*TangDir.z-TangDir.x*NormDir.z;
			BitangDir.z=TangDir.x*NormDir.y-NormDir.x*TangDir.y;

			float MagNorm=NormDir.x*NormDir.x+NormDir.y*NormDir.y+NormDir.z*NormDir.z;
			if(MagNorm){MagNorm=sqrtf(MagNorm); NormDir.x=NormDir.x/MagNorm; NormDir.y=NormDir.y/MagNorm; NormDir.z=NormDir.z/MagNorm;}

			float MagTang=TangDir.x*TangDir.x+TangDir.y*TangDir.y+TangDir.z*TangDir.z;
			if(MagTang){MagTang=sqrtf(MagTang); TangDir.x=TangDir.x/MagTang; TangDir.y=TangDir.y/MagTang; TangDir.z=TangDir.z/MagTang;}

			float MagBitang=BitangDir.x*BitangDir.x+BitangDir.y*BitangDir.y+BitangDir.z*BitangDir.z;
			if(MagBitang){MagBitang=sqrtf(MagBitang); BitangDir.x=BitangDir.x/MagBitang; BitangDir.y=BitangDir.y/MagBitang; BitangDir.z=BitangDir.z/MagBitang;}

			float NormProdVel=Sum.x*NormDir.x+Sum.y*NormDir.y+Sum.z*NormDir.z;
			float TangProdVel=Sum.x*TangDir.x+Sum.y*TangDir.y+Sum.z*TangDir.z;
			float BitangProdVel=Sum.x*BitangDir.x+Sum.y*BitangDir.y+Sum.z*BitangDir.z;

			NormVel.x=NormDir.x*NormProdVel;
			NormVel.y=NormDir.y*NormProdVel;
			NormVel.z=NormDir.z*NormProdVel;
			TangVel.x=TangDir.x*TangProdVel;
			TangVel.y=TangDir.y*TangProdVel;
			TangVel.z=TangDir.z*TangProdVel;
			BitangVel.x=BitangDir.x*BitangProdVel;
			BitangVel.y=BitangDir.y*BitangProdVel;
			BitangVel.z=BitangDir.z*BitangProdVel;
			double dp05=0.5*CTE.dp;
			if(posz[p1]<dp05&&(posxy[p1].x<pistonposx||posxy[p1].x>18.0-dp05)){
				velrhop[p1].x=2.0f*velrhop[p1].x-Sum.x;
				velrhop[p1].z=-Sum.z;
			}
			else{
				velrhop[p1].x=2.0f*velrhop[p1].x+TangVel.x+BitangVel.x-NormVel.x;
				velrhop[p1].y=2.0f*velrhop[p1].y+TangVel.y+BitangVel.y-NormVel.y;
				velrhop[p1].z=2.0f*velrhop[p1].z+TangVel.z+BitangVel.z-NormVel.z;
			}
		}
		else if(tslipcond==SLIPCOND_NoSlip){
			velrhop[p1].x=2.0f*velrhop[p1].x-Sum.x;
			velrhop[p1].y=2.0f*velrhop[p1].y-Sum.y;
			velrhop[p1].z=2.0f*velrhop[p1].z-Sum.z;
		}
	}
}

template<TpKernel tker> __device__ void KerCorrectDivr
   (const unsigned &pini,const unsigned &pfin,const double2 *posxy,const double *posz
 	,const float mass,const float rhop,double3 posdp1,float &divrp1,const float *divr,const float boundaryfs)
 {
 	const float volume=mass/rhop;
 	for(int p2=pini;p2<pfin;p2++)if(divr[p2]<boundaryfs){
     float drx,dry,drz;
     KerGetParticlesDr(p2,posxy,posz,posdp1,drx,dry,drz);
     float rr2=drx*drx+dry*dry+drz*drz;
     if(rr2<=CTE.fourh2 && rr2>=ALMOSTZERO){
 			//-Wendland kernel
       float frx,fry,frz;
       if(tker==KERNEL_Quintic) KerGetKernelQuintic(rr2,drx,dry,drz,frx,fry,frz);
 			else if(tker==KERNEL_Wendland) KerGetKernelWendland(rr2,drx,dry,drz,frx,fry,frz);
 			const float rDivW=drx*frx+dry*fry+drz*frz;//R.Div(W)
 			divrp1+=volume*rDivW;
 		}
 	}
 }
 
 template<TpKernel tker> __global__ void KerInteractionCorrectBoundDivr
   (unsigned n,int hdiv,uint4 nc,const int2 *begincell,int3 cellzero,const unsigned *dcell,
 	const float *ftomassp,const double2 *posxy,const double *posz,float4 *velrhop,const word *code,const unsigned *idp,
 	float *divr,const double3 *mirrorPos,const unsigned *mirrorCell,const float boundaryfs)
 {
   unsigned p1=blockIdx.y*gridDim.x*blockDim.x + blockIdx.x*blockDim.x + threadIdx.x; //-Nº de la partícula //-NI of particle.
   if(p1<n){
 		//-Carga datos de particula p1.
 		//-Loads particle p1 data.
     double3 posdp1;
     float3 velp1;
     KerGetParticleData(p1,posxy,posz,velrhop,velp1,posdp1);
     unsigned idpg1=idp[p1];
 		float divrp1=divr[p1];
 		const double3 posmp1=make_double3(mirrorPos[idpg1].x,mirrorPos[idpg1].y,mirrorPos[idpg1].z);
 			
 		int cxini,cxfin,yini,yfin,zini,zfin;
 		KerGetInteractionCells(mirrorCell[idpg1],hdiv,nc,cellzero,cxini,cxfin,yini,yfin,zini,zfin);
 				
 		for(int z=zini;z<zfin;z++){
 			int zmod=(nc.w)*z;	
 			for(int y=yini;y<yfin;y++){
 				int ymod=zmod+nc.x*y;
 				unsigned pini,pfin=0;
 				for(int x=cxini;x<cxfin;x++){
 					int2 cbeg=begincell[x+ymod];
 					if(cbeg.y){
 						if(!pfin)pini=cbeg.x;
 						pfin=cbeg.y;
 					}
 				}
 				if(pfin) KerCorrectDivr<tker> (pini,pfin,posxy,posz,CTE.massb,CTE.rhopzero,posmp1,divrp1,divr,boundaryfs);
 			}
 		}
 
 		divr[p1]=divrp1;
 	}
 }

//------------------------------------------------------------------------------
/// Realiza la interaccion de una particula con un conjunto de ellas. (Fluid/Float-Fluid/Float/Bound)
/// Interaction of a particle with a set of particles. (Fluid/Float-Fluid/Float/Bound)
//------------------------------------------------------------------------------
template<TpKernel tker,TpFtMode ftmode> __device__ void KerInteractionForcesFluidVisc
  (bool boundp2,unsigned p1,const unsigned &pini,const unsigned &pfin,float visco
  ,const float *ftomassp,const double2 *posxy,const double *posz,const float4 *velrhop,const word *code,const unsigned *idp
  ,float massp2,float ftmassp1,bool ftp1
  ,double3 posdp1,float3 velp1,float pressp1,float3 &acep1,float &divrp1,double3 &dwxp1,double3 &dwyp1,double3 &dwzp1,unsigned &rowCount,const float *divr,const float boundaryfs)
{
	const float volume=massp2/CTE.rhopzero; //Volume of particle j 
  for(int p2=pini;p2<pfin;p2++)if(!(boundp2&&divr[p2]<boundaryfs)){
    float drx,dry,drz;
    KerGetParticlesDr(p2,posxy,posz,posdp1,drx,dry,drz);
    float rr2=drx*drx+dry*dry+drz*drz;
    if(rr2<=CTE.fourh2 && rr2>=ALMOSTZERO){
      //-Wendland kernel.
      float frx,fry,frz;
      if(tker==KERNEL_Quintic) KerGetKernelQuintic(rr2,drx,dry,drz,frx,fry,frz);
			else if(tker==KERNEL_Wendland) KerGetKernelWendland(rr2,drx,dry,drz,frx,fry,frz);
	  
      //-Obtiene masa de particula p2 en caso de existir floatings.
	  //-Obtains mass of particle p2 if any floating bodies exist.
      //bool ftp2;         //-Indica si es floating. //-indicates if it is floating.
      //float ftmassp2;    //-Contiene masa de particula floating o massp2 si es bound o fluid. //-Contains mass of floating body or massf if fluid.
      /*if(USE_FLOATING){
        const word cod=code[p2];
        ftp2=(CODE_GetType(cod)==CODE_TYPE_FLOATING);
        ftmassp2=(ftp2? ftomassp[CODE_GetTypeValue(cod)]: massp2);
        if(ftp2 && (tdelta==DELTA_Dynamic || tdelta==DELTA_DynamicExt))deltap1=FLT_MAX;
        if(ftp2 && shift && tshifting==SHIFT_NoBound)shiftposp1.x=FLT_MAX; //-Con floatings anula shifting. //-Cancels shifting with floating bodies
        compute=!(USE_DEM && ftp1 && (boundp2 || ftp2)); //-Se desactiva cuando se usa DEM y es float-float o float-bound. //-Deactivated when DEM is used and is float-float or float-bound.
      }*/

      const float4 velrhop2=velrhop[p2];
      
      //===== Aceleration ===== 
		  const float rDivW=drx*frx+dry*fry+drz*frz;//R.Div(W)
		  const float temp=volume*2.0f*visco*rDivW/(rr2+CTE.eta2);
	    const float dvx=velp1.x-velrhop2.x, dvy=velp1.y-velrhop2.y, dvz=velp1.z-velrhop2.z;
      acep1.x+=temp*dvx; acep1.y+=temp*dvy; acep1.z+=temp*dvz;

			divrp1-=volume*rDivW;

			dwxp1.x-=volume*frx*drx; dwxp1.y-=volume*frx*dry; dwxp1.z-=volume*frx*drz;
			dwyp1.x-=volume*fry*drx; dwyp1.y-=volume*fry*dry; dwyp1.z-=volume*fry*drz;
			dwzp1.x-=volume*frz*drx; dwzp1.y-=volume*frz*dry; dwzp1.z-=volume*frz*drz;
			rowCount++;
		}
  }
}

//------------------------------------------------------------------------------
/// Realiza la interaccion de una particula con un conjunto de ellas. (Fluid/Float-Fluid/Float/Bound)
/// Interaction of a particle with a set of particles. (Fluid/Float-Fluid/Float/Bound)
//------------------------------------------------------------------------------
template<TpKernel tker,TpFtMode ftmode> __device__ void KerInteractionForcesFluidPresGrad
  (bool boundp2,unsigned p1,const unsigned &pini,const unsigned &pfin,float visco
  ,const float *ftomassp,const double2 *posxy,const double *posz,const float4 *velrhop,const word *code,const unsigned *idp
  ,float3 dwxcorrg,float3 dwycorrg,float3 dwzcorrg,float massp2,float ftmassp1,bool ftp1
  ,double3 posdp1,float3 velp1,float pressp1
  ,float3 &acep1,unsigned *row,float &nearestBound,const float *divr,const float boundaryfs)
{
	const float volumep2=massp2/CTE.rhopzero; //Volume of particle j
  for(int p2=pini;p2<pfin;p2++)if(!(boundp2&&divr[p2]<boundaryfs)){
    float drx,dry,drz;
		float pressp2=velrhop[p2].w;
    KerGetParticlesDr(p2,posxy,posz,posdp1,drx,dry,drz);
    float rr2=drx*drx+dry*dry+drz*drz;
    if(rr2<=CTE.fourh2 && rr2>=ALMOSTZERO){
      //-Wendland kernel.
      float frx,fry,frz;
      if(tker==KERNEL_Quintic) KerGetKernelQuintic(rr2,drx,dry,drz,frx,fry,frz);
			else if(tker==KERNEL_Wendland) KerGetKernelWendland(rr2,drx,dry,drz,frx,fry,frz);

      //-Obtiene masa de particula p2 en caso de existir floatings.
	  //-Obtains mass of particle p2 if any floating bodies exist.
      //bool ftp2;         //-Indica si es floating. //-indicates if it is floating.
      //float ftmassp2;    //-Contiene masa de particula floating o massp2 si es bound o fluid. //-Contains mass of floating body or massf if fluid.
     /* if(USE_FLOATING){
        const word cod=code[p2];
        ftp2=(CODE_GetType(cod)==CODE_TYPE_FLOATING);
        ftmassp2=(ftp2? ftomassp[CODE_GetTypeValue(cod)]: massp2);
        if(ftp2 && (tdelta==DELTA_Dynamic || tdelta==DELTA_DynamicExt))deltap1=FLT_MAX;
        if(ftp2 && shift && tshifting==SHIFT_NoBound)shiftposp1.x=FLT_MAX; //-Con floatings anula shifting. //-Cancels shifting with floating bodies
        compute=!(USE_DEM && ftp1 && (boundp2 || ftp2)); //-Se desactiva cuando se usa DEM y es float-float o float-bound. //-Deactivated when DEM is used and is float-float or float-bound.
      }*/
      //===== Aceleration ===== 
      const float temp_x=frx*dwxcorrg.x+fry*dwycorrg.x+frz*dwzcorrg.x;
      const float temp_y=frx*dwxcorrg.y+fry*dwycorrg.y+frz*dwzcorrg.y;
		  const float temp_z=frx*dwxcorrg.z+fry*dwycorrg.z+frz*dwzcorrg.z;
      const float temp=volumep2*(pressp2-pressp1);
      acep1.x+=temp*temp_x; acep1.y+=temp*temp_y; acep1.z+=temp*temp_z;

			if(boundp2){
				if(rr2<=nearestBound){
					nearestBound=rr2;
					row[p1]=p2;
				}
			}
    }
  }
}

//------------------------------------------------------------------------------
/// ES:
/// Realiza interaccion entre particulas. Fluid/Float-Fluid/Float or Fluid/Float-Bound
/// Incluye visco artificial/laminar y floatings normales/dem.
/// EN:
/// Interaction between particles. Fluid/Float-Fluid/Float or Fluid/Float-Bound.
/// Includes artificial/laminar viscosity and normal/DEM floating bodies.
//------------------------------------------------------------------------------
template<TpKernel tker,TpFtMode ftmode> __global__ void KerInteractionForcesFluid
  (TpInter tinter,unsigned npf,unsigned npb,int hdiv,uint4 nc,unsigned cellfluid,float viscob,float viscof
  ,const int2 *begincell,int3 cellzero,const unsigned *dcell
  ,const float *ftomassp,const double2 *posxy,const double *posz,const float4 *velrhop,const word *code,const unsigned *idp
  ,float3 *dwxcorrg,float3 *dwycorrg,float3 *dwzcorrg,float3 *ace,float *divr,unsigned *row,const unsigned matOrder,const float boundaryfs)
{
  unsigned p=blockIdx.y*gridDim.x*blockDim.x + blockIdx.x*blockDim.x + threadIdx.x; //-Nº de la partícula //-NI of the particle
  if(p<npf){
    unsigned p1=p+npb;      //-Nº de particula. //-NI of particle
		const unsigned Correctp1=p;
		float divrp1=0.0;
    float3 acep1=make_float3(0,0,0);
		double3 dwxp1=make_double3(0,0,0); double3 dwyp1=make_double3(0,0,0); double3 dwzp1=make_double3(0,0,0);
		unsigned rowCount=0; 
		float nearestBound=float(CTE.dp*CTE.dp);
		//-Obtiene datos de particula p1 en caso de existir floatings.
	//-Obtains data of particle p1 in case there are floating bodies.
    bool ftp1;       //-Indica si es floating. //-Indicates if it is floating.
    float ftmassp1;  //-Contiene masa de particula floating o 1.0f si es fluid. //-Contains floating particle mass or 1.0f if it is fluid.
    if(USE_FLOATING){
      const word cod=code[p1];
      ftp1=(CODE_GetType(cod)==CODE_TYPE_FLOATING);
      ftmassp1=(ftp1? ftomassp[CODE_GetTypeValue(cod)]: 1.f);
      //if(ftp1 && (tdelta==DELTA_Dynamic || tdelta==DELTA_DynamicExt))deltap1=FLT_MAX;
      //if(ftp1 && shift)shiftposp1.x=FLT_MAX;  //-Para floatings no se calcula shifting. //-Shifting is not calculated for floating bodies.
    }

    //-Obtiene datos basicos de particula p1.
	//-Obtains basic data of particle p1.
    double3 posdp1;
    float3 velp1;
    const float pressp1=velrhop[p1].w;
    KerGetParticleData(p1,posxy,posz,velrhop,velp1,posdp1);
    //-Obtiene limites de interaccion
	//-Obtains interaction limits
    int cxini,cxfin,yini,yfin,zini,zfin;
    KerGetInteractionCells(dcell[p1],hdiv,nc,cellzero,cxini,cxfin,yini,yfin,zini,zfin);

    //-Interaccion con Fluidas.
	//-Interaction with fluids.
    for(int z=zini;z<zfin;z++){
      int zmod=(nc.w)*z+cellfluid; //-Le suma donde empiezan las celdas de fluido. //-The sum showing where fluid cells start
      for(int y=yini;y<yfin;y++){
        int ymod=zmod+nc.x*y;
        unsigned pini,pfin=0;
        for(int x=cxini;x<cxfin;x++){
          int2 cbeg=begincell[x+ymod];
          if(cbeg.y){
            if(!pfin)pini=cbeg.x;
            pfin=cbeg.y;
          }
        }
        if(pfin){
					if(tinter==1)KerInteractionForcesFluidVisc<tker,ftmode> (false,p1,pini,pfin,viscof,ftomassp,posxy,posz,velrhop,code,idp,CTE.massf,ftmassp1,ftp1,posdp1,velp1,pressp1,acep1,divrp1,dwxp1,dwyp1,dwzp1,rowCount,divr,boundaryfs);
					else if(tinter==2) KerInteractionForcesFluidPresGrad<tker,ftmode> (false,p1,pini,pfin,viscof,ftomassp,posxy,posz,velrhop,code,idp,dwxcorrg[Correctp1],dwycorrg[Correctp1],dwzcorrg[Correctp1],CTE.massf,ftmassp1,ftp1,posdp1,velp1,pressp1,acep1,row,nearestBound,divr,boundaryfs);
				}
			}
    }

    if(acep1.x||acep1.y||acep1.z||divrp1
			||dwxp1.x||dwxp1.y||dwxp1.z
			||dwyp1.x||dwyp1.y||dwyp1.z
			||dwzp1.x||dwzp1.y||dwzp1.z){
      float3 r=ace[Correctp1]; 
      if(tinter==1){ 
				r.x+=acep1.x; r.y+=acep1.y; r.z+=acep1.z;
				
				divr[p1]+=divrp1;

				dwxcorrg[Correctp1].x+=float(dwxp1.x); dwxcorrg[Correctp1].y+=float(dwxp1.y); dwxcorrg[Correctp1].z+=float(dwxp1.z); 
				dwycorrg[Correctp1].x+=float(dwyp1.x); dwycorrg[Correctp1].y+=float(dwyp1.y); dwycorrg[Correctp1].z+=float(dwyp1.z); 
				dwzcorrg[Correctp1].x+=float(dwzp1.x); dwzcorrg[Correctp1].y+=float(dwzp1.y); dwzcorrg[Correctp1].z+=float(dwzp1.z); 
				divrp1=0;
				dwxp1=make_double3(0,0,0); dwyp1=make_double3(0,0,0); dwzp1=make_double3(0,0,0);
			} 
	    if(tinter==2){ const float rho0=CTE.rhopzero; r.x+=(acep1.x/rho0); r.y+=(acep1.y/rho0); r.z+=(acep1.z/rho0);}
      ace[Correctp1]=r;
			acep1=make_float3(0,0,0);  
    }

    //-Interaccion con contorno.
	//-Interaction with boundaries.
    for(int z=zini;z<zfin;z++){
      int zmod=(nc.w)*z;
      for(int y=yini;y<yfin;y++){
        int ymod=zmod+nc.x*y;
        unsigned pini,pfin=0;
        for(int x=cxini;x<cxfin;x++){
          int2 cbeg=begincell[x+ymod];
          if(cbeg.y){
            if(!pfin)pini=cbeg.x;
            pfin=cbeg.y;
          }
        }
        if(pfin){
		  		if(tinter==1)KerInteractionForcesFluidVisc<tker,ftmode> (true,p1,pini,pfin,viscof,ftomassp,posxy,posz,velrhop,code,idp,CTE.massf,ftmassp1,ftp1,posdp1,velp1,pressp1,acep1,divrp1,dwxp1,dwyp1,dwzp1,rowCount,divr,boundaryfs);
					else if(tinter==2) KerInteractionForcesFluidPresGrad<tker,ftmode> (true,p1,pini,pfin,viscof,ftomassp,posxy,posz,velrhop,code,idp,dwxcorrg[Correctp1],dwycorrg[Correctp1],dwzcorrg[Correctp1],CTE.massf,ftmassp1,ftp1,posdp1,velp1,pressp1,acep1,row,nearestBound,divr,boundaryfs);
				}
      }
    }
    //-Almacena resultados.
	//-Stores results.
    if(acep1.x||acep1.y||acep1.z||divrp1
			||dwxp1.x||dwxp1.y||dwxp1.z
			||dwyp1.x||dwyp1.y||dwyp1.z
			||dwzp1.x||dwzp1.y||dwzp1.z||rowCount){
      float3 r=ace[Correctp1]; 
      if(tinter==1){ 
				r.x+=acep1.x; r.y+=acep1.y; r.z+=acep1.z;
				
				divr[p1]+=divrp1;
				row[p1-matOrder]=rowCount;
				dwxcorrg[Correctp1].x+=float(dwxp1.x); dwxcorrg[Correctp1].y+=float(dwxp1.y); dwxcorrg[Correctp1].z+=float(dwxp1.z); 
				dwycorrg[Correctp1].x+=float(dwyp1.x); dwycorrg[Correctp1].y+=float(dwyp1.y); dwycorrg[Correctp1].z+=float(dwyp1.z); 
				dwzcorrg[Correctp1].x+=float(dwzp1.x); dwzcorrg[Correctp1].y+=float(dwzp1.y); dwzcorrg[Correctp1].z+=float(dwzp1.z); 
			} 
	    if(tinter==2){ const float rho0=CTE.rhopzero; r.x+=(acep1.x/rho0); r.y+=(acep1.y/rho0); r.z+=(acep1.z/rho0);}
      ace[Correctp1]=r;
    }
  }
}

template<TpKernel tker,TpFtMode ftmode> __device__ void KerViscousSchwaigerCalc
  (bool boundp2,unsigned p1,const unsigned &pini,const unsigned &pfin,const float *ftomassp,const double2 *posxy,const double *posz
	,const float4 *velrhop,const word *code,const unsigned *idp,float massp2,float ftmassp1,bool ftp1,double3 posdp1,float3 velp1,float3 &sumfr
	,float3 &dud,float3 &dvd,float3 &dwd,float3 dwxp1,float3 dwyp1,float3 dwzp1,const float *divr,const float boundaryfs,double3 &taop1)
{
	const float volume=massp2/CTE.rhopzero; //Volume of particle j 

  for(int p2=pini;p2<pfin;p2++)if(!(boundp2&&divr[p2]<boundaryfs)){
    float drx,dry,drz;
    KerGetParticlesDr(p2,posxy,posz,posdp1,drx,dry,drz);
    float rr2=drx*drx+dry*dry+drz*drz;
    if(rr2<=CTE.fourh2 && rr2>=ALMOSTZERO){
      //-Wendland kernel.
      float frx,fry,frz;
      if(tker==KERNEL_Quintic) KerGetKernelQuintic(rr2,drx,dry,drz,frx,fry,frz);
			else if(tker==KERNEL_Wendland) KerGetKernelWendland(rr2,drx,dry,drz,frx,fry,frz);
			const double rDivW=drx*frx+dry*fry+drz*frz;//R.Div(W)
			const double taotemp=volume*rDivW/(rr2+CTE.eta2);
			taop1.x+=taotemp*drx*drx; taop1.z+=taotemp*drz*drz;
			sumfr.x+=volume*frx; sumfr.y+=volume*fry; sumfr.z+=volume*frz;
      //-Obtiene masa de particula p2 en caso de existir floatings.
			//-Obtains mass of particle p2 if any floating bodies exist.
      //bool ftp2;         //-Indica si es floating. //-indicates if it is floating.
      //float ftmassp2;    //-Contiene masa de particula floating o massp2 si es bound o fluid. //-Contains mass of floating body or massf if fluid.
      /*if(USE_FLOATING){
        const word cod=code[p2];
        ftp2=(CODE_GetType(cod)==CODE_TYPE_FLOATING);
        ftmassp2=(ftp2? ftomassp[CODE_GetTypeValue(cod)]: massp2);
        if(ftp2 && (tdelta==DELTA_Dynamic || tdelta==DELTA_DynamicExt))deltap1=FLT_MAX;
        if(ftp2 && shift && tshifting==SHIFT_NoBound)shiftposp1.x=FLT_MAX; //-Con floatings anula shifting. //-Cancels shifting with floating bodies
        compute=!(USE_DEM && ftp1 && (boundp2 || ftp2)); //-Se desactiva cuando se usa DEM y es float-float o float-bound. //-Deactivated when DEM is used and is float-float or float-bound.
      }*/
			
      const float4 velrhop2=velrhop[p2];
	    const float dvx=velp1.x-velrhop2.x, dvy=velp1.y-velrhop2.y, dvz=velp1.z-velrhop2.z;

			float temp_x=frx*dwxp1.x+fry*dwyp1.x+frz*dwzp1.x; temp_x=temp_x*volume;
      float temp_y=frx*dwxp1.y+fry*dwyp1.y+frz*dwzp1.y; temp_y=temp_y*volume;
		  float temp_z=frx*dwxp1.z+fry*dwyp1.z+frz*dwzp1.z; temp_z=temp_z*volume;
			
			dud.x+=dvx*temp_x; dud.y+=dvx*temp_y; dud.z+=dvx*temp_z;
			dvd.x+=dvy*temp_x; dvd.y+=dvy*temp_y; dvd.z+=dvy*temp_z;
			dwd.x+=dvz*temp_x; dwd.y+=dvz*temp_y; dwd.z+=dvz*temp_z;
		}
  }
}

template<TpKernel tker,TpFtMode ftmode> __global__ void KerViscousSchwaiger
  (unsigned npf,unsigned npb,int hdiv,uint4 nc,unsigned cellfluid,float viscob,float viscof,const int2 *begincell
	,int3 cellzero,const unsigned *dcell,const float *ftomassp,const double2 *posxy,const double *posz
	,const float4 *velrhop,const word *code,const unsigned *idp,float3 *dwxcorrg,float3 *dwycorrg,float3 *dwzcorrg
	,float3 *ace,float3 *SumFr,float *tao,const float *divr,const float boundaryfs,const float freesurface)
{
  unsigned p=blockIdx.y*gridDim.x*blockDim.x + blockIdx.x*blockDim.x + threadIdx.x; //-Nº de la partícula //-NI of the particle
  if(p<npf){
    unsigned p1=p+npb;      //-Nº de particula. //-NI of particle
		const unsigned Correctp1=p;
		float3 sumfr=make_float3(0,0,0);
    float3 dud=make_float3(0,0,0);
		float3 dvd=make_float3(0,0,0);
		float3 dwd=make_float3(0,0,0);
		float3 dwxp1=dwxcorrg[Correctp1];
		float3 dwyp1=dwycorrg[Correctp1];
		float3 dwzp1=dwzcorrg[Correctp1];
		double3 taop1=make_double3(0,0,0);
		//-Obtiene datos de particula p1 en caso de existir floatings.
	//-Obtains data of particle p1 in case there are floating bodies.
    bool ftp1;       //-Indica si es floating. //-Indicates if it is floating.
    float ftmassp1;  //-Contiene masa de particula floating o 1.0f si es fluid. //-Contains floating particle mass or 1.0f if it is fluid.
    if(USE_FLOATING){
      const word cod=code[p1];
      ftp1=(CODE_GetType(cod)==CODE_TYPE_FLOATING);
      ftmassp1=(ftp1? ftomassp[CODE_GetTypeValue(cod)]: 1.f);
      //if(ftp1 && (tdelta==DELTA_Dynamic || tdelta==DELTA_DynamicExt))deltap1=FLT_MAX;
      //if(ftp1 && shift)shiftposp1.x=FLT_MAX;  //-Para floatings no se calcula shifting. //-Shifting is not calculated for floating bodies.
    }

    //-Obtiene datos basicos de particula p1.
	//-Obtains basic data of particle p1.
    double3 posdp1;
    float3 velp1;
    KerGetParticleData(p1,posxy,posz,velrhop,velp1,posdp1);
    //-Obtiene limites de interaccion
	//-Obtains interaction limits
    int cxini,cxfin,yini,yfin,zini,zfin;
    KerGetInteractionCells(dcell[p1],hdiv,nc,cellzero,cxini,cxfin,yini,yfin,zini,zfin);

    //-Interaccion con Fluidas.
	//-Interaction with fluids.
    for(int z=zini;z<zfin;z++){
      int zmod=(nc.w)*z+cellfluid; //-Le suma donde empiezan las celdas de fluido. //-The sum showing where fluid cells start
      for(int y=yini;y<yfin;y++){
        int ymod=zmod+nc.x*y;
        unsigned pini,pfin=0;
        for(int x=cxini;x<cxfin;x++){
          int2 cbeg=begincell[x+ymod];
          if(cbeg.y){
            if(!pfin)pini=cbeg.x;
            pfin=cbeg.y;
          }
        }
        if(pfin) KerViscousSchwaigerCalc<tker,ftmode> (false,p1,pini,pfin,ftomassp,posxy,posz,velrhop,code,idp,CTE.massf,ftmassp1,ftp1,posdp1,velp1,sumfr,dud,dvd,dwd,dwxp1,dwyp1,dwzp1,divr,boundaryfs,taop1);
			}
    }

    //-Interaccion con contorno.
		//-Interaction with boundaries.
    for(int z=zini;z<zfin;z++){
      int zmod=(nc.w)*z;
      for(int y=yini;y<yfin;y++){
        int ymod=zmod+nc.x*y;
        unsigned pini,pfin=0;
        for(int x=cxini;x<cxfin;x++){
          int2 cbeg=begincell[x+ymod];
          if(cbeg.y){
            if(!pfin)pini=cbeg.x;
            pfin=cbeg.y;
          }
        }
        if(pfin) KerViscousSchwaigerCalc<tker,ftmode> (true,p1,pini,pfin,ftomassp,posxy,posz,velrhop,code,idp,CTE.massf,ftmassp1,ftp1,posdp1,velp1,sumfr,dud,dvd,dwd,dwxp1,dwyp1,dwzp1,divr,boundaryfs,taop1);
      }
    }

    //-Almacena resultados.
	//-Stores results.
		float mu2=2.0*viscof;
    float3 r=ace[Correctp1]; 
    r.x-=mu2*(dud.x*sumfr.x+dud.y*sumfr.y+dud.z*sumfr.z); 
		r.y-=mu2*(dvd.x*sumfr.x+dvd.y*sumfr.y+dvd.z*sumfr.z); 
		r.z-=mu2*(dwd.x*sumfr.x+dwd.y*sumfr.y+dwd.z*sumfr.z);
		taop1.x=1.0/(taop1.x+CTE.eta2); taop1.z=1.0/(taop1.z+CTE.eta2);
		float taoFinal=float(-0.5*(taop1.x+taop1.z));
    ace[Correctp1]=r;
		if(divr[p1]>freesurface){ ace[Correctp1].x=ace[Correctp1].x*taoFinal; ace[Correctp1].z=ace[Correctp1].z*taoFinal;}
		tao[Correctp1]=taoFinal;
		SumFr[Correctp1].x=sumfr.x; SumFr[Correctp1].y=sumfr.y; SumFr[Correctp1].z=sumfr.z;
  }
}

//==============================================================================
/// Collects kernel information.
//==============================================================================
template<TpKernel tker,TpFtMode ftmode> void Interaction_ForcesT_KerInfo(StKerInfo *kerinfo)
{
	#if CUDART_VERSION >= 6050
  {
    typedef void (*fun_ptr)(TpInter,unsigned,unsigned,int,uint4,unsigned,float,float,const int2*,int3,const unsigned*,const float*,const double2*,const double*,const float4*,const word*,const unsigned*,float3*,float3*,float3*,float3*,float*,unsigned*,const unsigned,const float);
    fun_ptr ptr=&KerInteractionForcesFluid<tker,ftmode>;
    int qblocksize=0,mingridsize=0;
    cudaOccupancyMaxPotentialBlockSize(&mingridsize,&qblocksize,(void*)ptr,0,0);
    struct cudaFuncAttributes attr;
    cudaFuncGetAttributes(&attr,(void*)ptr);
    kerinfo->forcesfluid_bs=qblocksize;
    kerinfo->forcesfluid_rg=attr.numRegs;
    kerinfo->forcesfluid_bsmax=attr.maxThreadsPerBlock;
    //printf(">> KerInteractionForcesFluid  blocksize:%u (%u)\n",qblocksize,0);
  }
  {
    typedef void (*fun_ptr)(bool,TpSlipCond,unsigned,int,uint4,const int2*,int3,const unsigned*,const float*,const double2*,const double*,float4*,const word*,const unsigned*,float*,const double3*,const unsigned*,const float4*,unsigned*,const double);
    fun_ptr ptr=&KerInteractionForcesBound<tker>;
    int qblocksize=0,mingridsize=0;
    cudaOccupancyMaxPotentialBlockSize(&mingridsize,&qblocksize,(void*)ptr,0,0);
    struct cudaFuncAttributes attr;
    cudaFuncGetAttributes(&attr,(void*)ptr);
    kerinfo->forcesbound_bs=qblocksize;
    kerinfo->forcesbound_rg=attr.numRegs;
    kerinfo->forcesbound_bsmax=attr.maxThreadsPerBlock;
    //printf(">> KerInteractionForcesBound  blocksize:%u (%u)\n",qblocksize,0);
  }
  CheckErrorCuda("Error collecting kernel information.");
#endif
}

//==============================================================================
/// Interaccion para el calculo de fuerzas.
/// Interaction for the force computation.
//==============================================================================
template<TpKernel tker,TpFtMode ftmode,bool schwaiger> void Interaction_ForcesT
  (TpSlipCond tslipcond,TpCellMode cellmode,float viscob,float viscof,unsigned bsbound,unsigned bsfluid
  ,TpInter tinter,unsigned np,unsigned npb,unsigned npbok,tuint3 ncells,const int2 *begincell,tuint3 cellmin,const unsigned *dcell
  ,const double2 *posxy,const double *posz,float4 *velrhop,const word *code,const unsigned *idp,float3 *dwxcorrg,float3 *dwycorrg,float3 *dwzcorrg
  ,const float *ftomassp,float3 *ace,bool simulate2d,float *divr,const double3 *mirrorPos,const unsigned *mirrorCell,float4 *mls,unsigned *row
	,float3 *SumFr,float *tao,const float boundaryfs,const float freesurface,const double pistonposx,StKerInfo *kerinfo,JBlockSizeAuto *bsauto)
{
	const unsigned npf=np-npb;
	if(kerinfo)Interaction_ForcesT_KerInfo<tker,ftmode>(kerinfo);
  //else if(bsauto)Interaction_ForcesT_BsAuto<psimple,tker,ftmode,lamsps,tdelta,shift>(cellmode,viscob,viscof,bsbound,bsfluid,np,npb,npbok,ncells,begincell,cellmin,dcell,posxy,posz,pospress,velrhop,code,idp,ftomassp,tau,gradvel,viscdt,ar,ace,delta,tshifting,shiftpos,shiftdetect,simulate2d,bsauto);
  else if(npf){
		//-Executes particle interactions.
		const int hdiv=(cellmode==CELLMODE_H? 2: 1);
		const uint4 nc=make_uint4(ncells.x,ncells.y,ncells.z,ncells.x*ncells.y);
		const unsigned cellfluid=nc.w*nc.z+1;
		const int3 cellzero=make_int3(cellmin.x,cellmin.y,cellmin.z);
	
		dim3 sgridb=GetGridSize(npbok,bsbound);
		dim3 sgridf=GetGridSize(npf,bsfluid);

		if(tinter==1){
			if(simulate2d) KerMLSBoundary2D<tker> <<<sgridb,bsbound>>> (npbok,hdiv,nc,begincell,cellzero,dcell,posxy,posz,code,idp,mirrorPos,mirrorCell,mls);
			else KerMLSBoundary3D<tker> <<<sgridb,bsbound>>> (npbok,hdiv,nc,begincell,cellzero,dcell,posxy,posz,code,idp,mirrorPos,mirrorCell,mls);
			KerInteractionForcesBound<tker> <<<sgridb,bsbound>>> (simulate2d,tslipcond,npbok,hdiv,nc,begincell,cellzero,dcell,ftomassp,posxy,posz,velrhop,code,idp,divr,mirrorPos,mirrorCell,mls,row,pistonposx);
			KerInteractionCorrectBoundDivr<tker> <<<sgridb,bsbound>>> (npbok,hdiv,nc,begincell,cellzero,dcell,ftomassp,posxy,posz,velrhop,code,idp,divr,mirrorPos,mirrorCell,boundaryfs);
		}
		//-Interaccion Fluid-Fluid & Fluid-Bound
		//-Interaction Fluid-Fluid & Fluid-Bound
		const unsigned matOrder=npb-npbok;

		KerInteractionForcesFluid<tker,ftmode> <<<sgridf,bsfluid>>> (tinter,npf,npb,hdiv,nc,cellfluid,viscob,viscof,begincell,cellzero,dcell,ftomassp,posxy,posz,velrhop,code,idp,dwxcorrg,dwycorrg,dwzcorrg,ace,divr,row,matOrder,boundaryfs);

		if(tinter==1){
			if(simulate2d) KerInverseKernelCor2D <<<sgridf,bsfluid>>> (npf,npb,dwxcorrg,dwzcorrg,code);
			else KerInverseKernelCor3D <<<sgridf,bsfluid>>> (npf,npb,dwxcorrg,dwycorrg,dwzcorrg,code);
		}

		if(schwaiger&&tinter==1) KerViscousSchwaiger<tker,ftmode> <<<sgridf,bsfluid>>> (npf,npb,hdiv,nc,cellfluid,viscob,viscof,begincell,cellzero,dcell,ftomassp,posxy,posz,velrhop,code,idp,dwxcorrg,dwycorrg,dwzcorrg,ace,SumFr,tao,divr,boundaryfs,freesurface);
	}
}
//==============================================================================
void Interaction_Forces(TpKernel tkernel,bool floating,bool usedem,TpSlipCond tslipcond,bool schwaiger,TpCellMode cellmode
  ,float viscob,float viscof,unsigned bsbound,unsigned bsfluid
  ,TpInter tinter,unsigned np,unsigned npb,unsigned npbok,tuint3 ncells
  ,const int2 *begincell,tuint3 cellmin,const unsigned *dcell
  ,const double2 *posxy,const double *posz,float4 *velrhop,const word *code,const unsigned *idp,float3 *dwxcorrg,float3 *dwycorrg,float3 *dwzcorrg
  ,const float *ftomassp,float3 *ace,bool simulate2d,float *divr,const double3 *mirrorPos,const unsigned *mirrorCell,float4 *mls,unsigned *row,float3 *SumFr,float *tao,const float boundaryfs,const float freesurface,const double pistonposx,StKerInfo *kerinfo,JBlockSizeAuto *bsauto)
{
	if(tkernel==KERNEL_Quintic){    const TpKernel tker=KERNEL_Quintic;
		if(!schwaiger){
			if(!floating)   Interaction_ForcesT<tker,FTMODE_None,false> (tslipcond,cellmode,viscob,viscof,bsbound,bsfluid,tinter,np,npb,npbok,ncells,begincell,cellmin,dcell,posxy,posz,velrhop,code,idp,dwxcorrg,dwycorrg,dwzcorrg,ftomassp,ace,simulate2d,divr,mirrorPos,mirrorCell,mls,row,NULL,NULL,boundaryfs,freesurface,pistonposx,kerinfo,bsauto);
			else if(!usedem)Interaction_ForcesT<tker,FTMODE_Sph,false>  (tslipcond,cellmode,viscob,viscof,bsbound,bsfluid,tinter,np,npb,npbok,ncells,begincell,cellmin,dcell,posxy,posz,velrhop,code,idp,dwxcorrg,dwycorrg,dwzcorrg,ftomassp,ace,simulate2d,divr,mirrorPos,mirrorCell,mls,row,NULL,NULL,boundaryfs,freesurface,pistonposx,kerinfo,bsauto);
			else            Interaction_ForcesT<tker,FTMODE_Dem,false>  (tslipcond,cellmode,viscob,viscof,bsbound,bsfluid,tinter,np,npb,npbok,ncells,begincell,cellmin,dcell,posxy,posz,velrhop,code,idp,dwxcorrg,dwycorrg,dwzcorrg,ftomassp,ace,simulate2d,divr,mirrorPos,mirrorCell,mls,row,NULL,NULL,boundaryfs,freesurface,pistonposx,kerinfo,bsauto);
		}else{
			if(!floating)   Interaction_ForcesT<tker,FTMODE_None,true> (tslipcond,cellmode,viscob,viscof,bsbound,bsfluid,tinter,np,npb,npbok,ncells,begincell,cellmin,dcell,posxy,posz,velrhop,code,idp,dwxcorrg,dwycorrg,dwzcorrg,ftomassp,ace,simulate2d,divr,mirrorPos,mirrorCell,mls,row,SumFr,tao,boundaryfs,freesurface,pistonposx,kerinfo,bsauto);
			else if(!usedem)Interaction_ForcesT<tker,FTMODE_Sph,true>  (tslipcond,cellmode,viscob,viscof,bsbound,bsfluid,tinter,np,npb,npbok,ncells,begincell,cellmin,dcell,posxy,posz,velrhop,code,idp,dwxcorrg,dwycorrg,dwzcorrg,ftomassp,ace,simulate2d,divr,mirrorPos,mirrorCell,mls,row,SumFr,tao,boundaryfs,freesurface,pistonposx,kerinfo,bsauto);
			else            Interaction_ForcesT<tker,FTMODE_Dem,true>  (tslipcond,cellmode,viscob,viscof,bsbound,bsfluid,tinter,np,npb,npbok,ncells,begincell,cellmin,dcell,posxy,posz,velrhop,code,idp,dwxcorrg,dwycorrg,dwzcorrg,ftomassp,ace,simulate2d,divr,mirrorPos,mirrorCell,mls,row,SumFr,tao,boundaryfs,freesurface,pistonposx,kerinfo,bsauto);	
		}
	}
	else if(tkernel==KERNEL_Wendland){    const TpKernel tker=KERNEL_Wendland;
		if(!schwaiger){
			if(!floating)   Interaction_ForcesT<tker,FTMODE_None,false> (tslipcond,cellmode,viscob,viscof,bsbound,bsfluid,tinter,np,npb,npbok,ncells,begincell,cellmin,dcell,posxy,posz,velrhop,code,idp,dwxcorrg,dwycorrg,dwzcorrg,ftomassp,ace,simulate2d,divr,mirrorPos,mirrorCell,mls,row,NULL,NULL,boundaryfs,freesurface,pistonposx,kerinfo,bsauto);
			else if(!usedem)Interaction_ForcesT<tker,FTMODE_Sph,false>  (tslipcond,cellmode,viscob,viscof,bsbound,bsfluid,tinter,np,npb,npbok,ncells,begincell,cellmin,dcell,posxy,posz,velrhop,code,idp,dwxcorrg,dwycorrg,dwzcorrg,ftomassp,ace,simulate2d,divr,mirrorPos,mirrorCell,mls,row,NULL,NULL,boundaryfs,freesurface,pistonposx,kerinfo,bsauto);
			else            Interaction_ForcesT<tker,FTMODE_Dem,false>  (tslipcond,cellmode,viscob,viscof,bsbound,bsfluid,tinter,np,npb,npbok,ncells,begincell,cellmin,dcell,posxy,posz,velrhop,code,idp,dwxcorrg,dwycorrg,dwzcorrg,ftomassp,ace,simulate2d,divr,mirrorPos,mirrorCell,mls,row,NULL,NULL,boundaryfs,freesurface,pistonposx,kerinfo,bsauto);
		}else{
			if(!floating)   Interaction_ForcesT<tker,FTMODE_None,true> (tslipcond,cellmode,viscob,viscof,bsbound,bsfluid,tinter,np,npb,npbok,ncells,begincell,cellmin,dcell,posxy,posz,velrhop,code,idp,dwxcorrg,dwycorrg,dwzcorrg,ftomassp,ace,simulate2d,divr,mirrorPos,mirrorCell,mls,row,SumFr,tao,boundaryfs,freesurface,pistonposx,kerinfo,bsauto);
			else if(!usedem)Interaction_ForcesT<tker,FTMODE_Sph,true>  (tslipcond,cellmode,viscob,viscof,bsbound,bsfluid,tinter,np,npb,npbok,ncells,begincell,cellmin,dcell,posxy,posz,velrhop,code,idp,dwxcorrg,dwycorrg,dwzcorrg,ftomassp,ace,simulate2d,divr,mirrorPos,mirrorCell,mls,row,SumFr,tao,boundaryfs,freesurface,pistonposx,kerinfo,bsauto);
			else            Interaction_ForcesT<tker,FTMODE_Dem,true>  (tslipcond,cellmode,viscob,viscof,bsbound,bsfluid,tinter,np,npb,npbok,ncells,begincell,cellmin,dcell,posxy,posz,velrhop,code,idp,dwxcorrg,dwycorrg,dwzcorrg,ftomassp,ace,simulate2d,divr,mirrorPos,mirrorCell,mls,row,SumFr,tao,boundaryfs,freesurface,pistonposx,kerinfo,bsauto);
		}
	}
}

/*//##############################################################################
//# Kernels para interaccion DEM.
//# Kernels for DEM interaction
//##########################################.####################################
//------------------------------------------------------------------------------
/// Realiza la interaccion DEM de una particula con un conjunto de ellas. (Float-Float/Bound)
/// DEM interaction of a particle with a set of particles (Float-Float/Bound).
//------------------------------------------------------------------------------
template<bool psimple> __device__ void KerInteractionForcesDemBox 
  (bool boundp2,const unsigned &pini,const unsigned &pfin
  ,const float4 *demdata,float dtforce
  ,const double2 *posxy,const double *posz,const float4 *pospress,const float4 *velrhop,const word *code,const unsigned *idp
  ,double3 posdp1,float3 posp1,float3 velp1,word tavp1,float masstotp1,float taup1,float kfricp1,float restitup1
  ,float3 &acep1,float &demdtp1)
{
  for(int p2=pini;p2<pfin;p2++){
    const word codep2=code[p2];
    if(CODE_GetType(codep2)!=CODE_TYPE_FLUID && tavp1!=CODE_GetTypeAndValue(codep2)){
      float drx,dry,drz;
      KerGetParticlesDr<psimple> (p2,posxy,posz,pospress,posdp1,posp1,drx,dry,drz);
      const float rr2=drx*drx+dry*dry+drz*drz;
      const float rad=sqrt(rr2);

      //-Calcula valor maximo de demdt.
	  //-Computes maximum value of demdt.
      float4 demdatap2=demdata[CODE_GetTypeAndValue(codep2)];
      const float nu_mass=(boundp2? masstotp1/2: masstotp1*demdatap2.x/(masstotp1+demdatap2.x)); //-Con boundary toma la propia masa del floating 1. //-With boundary takes the actual mass of floating 1.
      const float kn=4/(3*(taup1+demdatap2.y))*sqrt(CTE.dp/4);  //generalized rigidity - Lemieux 2008
      const float demvisc=float(PI)/(sqrt( kn/nu_mass ))*40.f;
      if(demdtp1<demvisc)demdtp1=demvisc;

      const float over_lap=1.0f*CTE.dp-rad; //-(ri+rj)-|dij|
      if(over_lap>0.0f){ //-Contact
        const float dvx=velp1.x-velrhop[p2].x, dvy=velp1.y-velrhop[p2].y, dvz=velp1.z-velrhop[p2].z; //vji
        const float nx=drx/rad, ny=dry/rad, nz=drz/rad; //normal_ji             
        const float vn=dvx*nx+dvy*ny+dvz*nz; //vji.nji    
        //normal                    
        const float eij=(restitup1+demdatap2.w)/2;
        const float gn=-(2.0f*log(eij)*sqrt(nu_mass*kn))/(sqrt(float(PI)+log(eij)*log(eij))); //generalized damping - Cummins 2010
        //const float gn=0.08f*sqrt(nu_mass*sqrt(CTE.dp/2)/((taup1+demdatap2.y)/2)); //generalized damping - Lemieux 2008
        float rep=kn*pow(over_lap,1.5f);
        float fn=rep-gn*pow(over_lap,0.25f)*vn;                   
        acep1.x+=(fn*nx); acep1.y+=(fn*ny); acep1.z+=(fn*nz); //-Force is applied in the normal between the particles
        //tangencial
        float dvxt=dvx-vn*nx, dvyt=dvy-vn*ny, dvzt=dvz-vn*nz; //Vji_t
        float vt=sqrt(dvxt*dvxt + dvyt*dvyt + dvzt*dvzt);
        float tx=(vt!=0? dvxt/vt: 0), ty=(vt!=0? dvyt/vt: 0), tz=(vt!=0? dvzt/vt: 0); //Tang vel unit vector
        float ft_elast=2*(kn*dtforce-gn)*vt/7;   //Elastic frictional string -->  ft_elast=2*(kn*fdispl-gn*vt)/7; fdispl=dtforce*vt;
        const float kfric_ij=(kfricp1+demdatap2.z)/2;
        float ft=kfric_ij*fn*tanh(8*vt);  //Coulomb
        ft=(ft<ft_elast? ft: ft_elast);   //not above yield criteria, visco-elastic model
        acep1.x+=(ft*tx); acep1.y+=(ft*ty); acep1.z+=(ft*tz);
      }
    }
  }
}

//------------------------------------------------------------------------------
/// ES:
/// Realiza interaccion entre particulas. Fluid/Float-Fluid/Float or Fluid/Float-Bound
/// Incluye visco artificial/laminar y floatings normales/dem.
/// - EN:
/// Interaction between particles. Fluid/Float-Fluid/Float or Fluid/Float-Bound.
/// Includes artificial/laminar viscosity and normal/DEM floating bodies.
//------------------------------------------------------------------------------
template<bool psimple> __global__ void KerInteractionForcesDem
  (unsigned nfloat,int hdiv,uint4 nc,unsigned cellfluid
  ,const int2 *begincell,int3 cellzero,const unsigned *dcell
  ,const unsigned *ftridp,const float4 *demdata,float dtforce
  ,const double2 *posxy,const double *posz,const float4 *pospress,const float4 *velrhop,const word *code,const unsigned *idp
  ,float *viscdt,float3 *ace)
{
  unsigned p=blockIdx.y*gridDim.x*blockDim.x + blockIdx.x*blockDim.x + threadIdx.x; //-Nº de la partícula //-NI of the particle
  if(p<nfloat){
    const unsigned p1=ftridp[p];      //-Nº de particula. //-NI of the particle
    if(p1!=UINT_MAX){
      float demdtp1=0;
      float3 acep1=make_float3(0,0,0);

      //-Obtiene datos basicos de particula p1.
	  //-Obtains basic data of particle p1.
      double3 posdp1;
      float3 posp1,velp1;
      KerGetParticleData<psimple>(p1,posxy,posz,pospress,velrhop,velp1,posdp1,posp1);
      const word tavp1=CODE_GetTypeAndValue(code[p1]);
      float4 rdata=demdata[tavp1];
      const float masstotp1=rdata.x;
      const float taup1=rdata.y;
      const float kfricp1=rdata.z;
      const float restitup1=rdata.w;

      //-Obtiene limites de interaccion
	  //-Obtains interaction limits
      int cxini,cxfin,yini,yfin,zini,zfin;
      KerGetInteractionCells(dcell[p1],hdiv,nc,cellzero,cxini,cxfin,yini,yfin,zini,zfin);

      //-Interaccion con contorno.
	  //-Interaction with boundaries.
      for(int z=zini;z<zfin;z++){
        int zmod=(nc.w)*z;
        for(int y=yini;y<yfin;y++){
          int ymod=zmod+nc.x*y;
          unsigned pini,pfin=0;
          for(int x=cxini;x<cxfin;x++){
            int2 cbeg=begincell[x+ymod];
            if(cbeg.y){
              if(!pfin)pini=cbeg.x;
              pfin=cbeg.y;
            }
          }
          if(pfin)KerInteractionForcesDemBox<psimple> (true ,pini,pfin,demdata,dtforce,posxy,posz,pospress,velrhop,code,idp,posdp1,posp1,velp1,tavp1,masstotp1,taup1,kfricp1,restitup1,acep1,demdtp1);
        }
      }

      //-Interaccion con Fluidas.
	  //-Interaction with fluids.
      for(int z=zini;z<zfin;z++){
        int zmod=(nc.w)*z+cellfluid; //-Le suma donde empiezan las celdas de fluido. //-The sum showing where fluid cells start
        for(int y=yini;y<yfin;y++){
          int ymod=zmod+nc.x*y;
          unsigned pini,pfin=0;
          for(int x=cxini;x<cxfin;x++){
            int2 cbeg=begincell[x+ymod];
            if(cbeg.y){
              if(!pfin)pini=cbeg.x;
              pfin=cbeg.y;
            }
          }
          if(pfin)KerInteractionForcesDemBox<psimple> (false,pini,pfin,demdata,dtforce,posxy,posz,pospress,velrhop,code,idp,posdp1,posp1,velp1,tavp1,masstotp1,taup1,kfricp1,restitup1,acep1,demdtp1);
        }
      }
      //-Almacena resultados.
	  //-Stores results.
      if(acep1.x || acep1.y || acep1.z || demdtp1){
        float3 r=ace[p1]; r.x+=acep1.x; r.y+=acep1.y; r.z+=acep1.z; ace[p1]=r;
        if(viscdt[p1]<demdtp1)viscdt[p1]=demdtp1;
      }
    }
  }
}

//==============================================================================
/// Interaccion para el calculo de fuerzas.
/// Interaction for the force computation.
//==============================================================================
template<bool psimple> void Interaction_ForcesDemT
  (TpCellMode cellmode,unsigned bsize
  ,unsigned nfloat,tuint3 ncells,const int2 *begincell,tuint3 cellmin,const unsigned *dcell
  ,const unsigned *ftridp,const float4 *demdata,float dtforce
  ,const double2 *posxy,const double *posz,const float4 *pospress,const float4 *velrhop
  ,const word *code,const unsigned *idp,float *viscdt,float3 *ace)
{
  const int hdiv=(cellmode==CELLMODE_H? 2: 1);
  const uint4 nc=make_uint4(ncells.x,ncells.y,ncells.z,ncells.x*ncells.y);
  const unsigned cellfluid=nc.w*nc.z+1;
  const int3 cellzero=make_int3(cellmin.x,cellmin.y,cellmin.z);
  //-Interaccion Fluid-Fluid & Fluid-Bound
  //-Interaction Fluid-Fluid & Fluid-Bound
  if(nfloat){
    dim3 sgrid=GetGridSize(nfloat,bsize);
    KerInteractionForcesDem<psimple> <<<sgrid,bsize>>> (nfloat,hdiv,nc,cellfluid,begincell,cellzero,dcell,ftridp,demdata,dtforce,posxy,posz,pospress,velrhop,code,idp,viscdt,ace);
  }
}
//==============================================================================
void Interaction_ForcesDem(bool psimple,TpCellMode cellmode,unsigned bsize
  ,unsigned nfloat,tuint3 ncells,const int2 *begincell,tuint3 cellmin,const unsigned *dcell
  ,const unsigned *ftridp,const float4 *demdata,float dtforce
  ,const double2 *posxy,const double *posz,const float4 *pospress,const float4 *velrhop
  ,const word *code,const unsigned *idp,float *viscdt,float3 *ace)
{
  if(psimple)Interaction_ForcesDemT<true>  (cellmode,bsize,nfloat,ncells,begincell,cellmin,dcell,ftridp,demdata,dtforce,posxy,posz,pospress,velrhop,code,idp,viscdt,ace);
  else       Interaction_ForcesDemT<false> (cellmode,bsize,nfloat,ncells,begincell,cellmin,dcell,ftridp,demdata,dtforce,posxy,posz,pospress,velrhop,code,idp,viscdt,ace);
}
*/

//##############################################################################
//# Kernels para Shifting.
//# Shifting kernels.
//##############################################################################
//------------------------------------------------------------------------------
/// Calcula Shifting final para posicion de particulas.
/// Computes final shifting for the particle position.
//------------------------------------------------------------------------------
__global__ void KerRunShifting(const bool simulate2d,unsigned n,unsigned pini,double dt
  ,float shiftcoef,float freesurface,float4 *velrhop,const float *divr,float3 *shiftpos
	,const float ShiftOffset,const double alphashift,const bool maxShift,float3 *sumtensile,const double beta0,const double beta1)
{
  unsigned p=blockIdx.y*gridDim.x*blockDim.x + blockIdx.x*blockDim.x + threadIdx.x; //-Nº de la partícula //-NI of the particle.
  if(p<n){
    const unsigned p1=p+pini;
		const unsigned Correctp1=p;
    float3 rshiftpos=shiftpos[Correctp1];
    float divrp1=divr[p1];
		double h=double(CTE.h);
		double dp=double(CTE.dp);
    //double umagn=-double(shiftcoef)*double(CTE.h)*dt*sqrt(velrhop[p1].x*velrhop[p1].x+velrhop[p1].y*velrhop[p1].y+velrhop[p1].z*velrhop[p1].z);
		double umagn=-double(shiftcoef)*h*h;

		float3 norm=make_float3(-rshiftpos.x,-rshiftpos.y,-rshiftpos.z);

		if(simulate2d) norm.y=0;
	  float3 tang=make_float3(0,0,0);
	  float3 bitang=make_float3(0,0,0);
		rshiftpos.x+=sumtensile[Correctp1].x; rshiftpos.y+=sumtensile[Correctp1].y; rshiftpos.z+=sumtensile[Correctp1].z;
		if(simulate2d)  rshiftpos.y=0;

	  //-tangent and bitangent calculation
	  tang.x=norm.z+norm.y;		
	  if(!simulate2d)tang.y=-(norm.x+norm.z);	
	  tang.z=-norm.x+norm.y;
		if(!simulate2d){
			bitang.x=tang.y*norm.z-norm.y*tang.z;
			bitang.y=norm.x*tang.z-tang.x*norm.z;
			bitang.z=tang.x*norm.y-norm.x*tang.y;
		}

	  //-unit normal vector
	  float temp=norm.x*norm.x+norm.y*norm.y+norm.z*norm.z;
	  if(temp){
      temp=sqrt(temp);
	    norm.x=norm.x/temp; norm.y=norm.y/temp; norm.z=norm.z/temp;
    }
    else {norm.x=0.f; norm.y=0.f; norm.z=0.f;}

	  //-unit tangent vector
	  temp=tang.x*tang.x+tang.y*tang.y+tang.z*tang.z;
	  if(temp){
      temp=sqrt(temp);
	    tang.x=tang.x/temp; tang.y=tang.y/temp; tang.z=tang.z/temp;
    }
    else {tang.x=0.f; tang.y=0.f; tang.z=0.f;}

	  //-unit bitangent vector
		if(!simulate2d){
			temp=bitang.x*bitang.x+bitang.y*bitang.y+bitang.z*bitang.z;
			if(temp){
				temp=sqrt(temp);
				bitang.x=bitang.x/temp; bitang.y=bitang.y/temp; bitang.z=bitang.z/temp;
			}
			else {bitang.x=0.f; bitang.y=0.f; bitang.z=0.f;}
		}

	  //-gradient calculation
	  float dcds=tang.x*rshiftpos.x+tang.z*rshiftpos.z+tang.y*rshiftpos.y;
	  float dcdn=norm.x*rshiftpos.x+norm.z*rshiftpos.z+norm.y*rshiftpos.y;
	  float dcdb=bitang.x*rshiftpos.x+bitang.z*rshiftpos.z+bitang.y*rshiftpos.y;

    if(divrp1<freesurface){
			dcdn-=beta0;
			double factorNormShift=0;//alphashift;
      rshiftpos.x=float(dcds*tang.x+dcdb*bitang.x+(dcdn*norm.x)*factorNormShift);
      if(!simulate2d) rshiftpos.y=float(dcds*tang.y+dcdb*bitang.y+(dcdn*norm.y)*factorNormShift);
[...]
{
  for(int p2=pini;p2<pfin;p2++)if(!(boundp2&&divr[p2]<boundaryfs)){
    float drx,dry,drz;
    KerGetParticlesDr(p2,posxy,posz,posdp1,drx,dry,drz);
    float rr2=drx*drx+dry*dry+drz*drz;
    if(rr2<=CTE.fourh2 && rr2>=ALMOSTZERO){
      //-Wendland kernel.
      float frx,fry,frz,Wab;
      if(tker==KERNEL_Quintic){
				KerGetKernelQuintic(rr2,drx,dry,drz,frx,fry,frz);
				Wab=KerGetKernelQuinticWab(rr2);
			}
			else if(tker==KERNEL_Wendland){
				KerGetKernelWendland(rr2,drx,dry,drz,frx,fry,frz);
				Wab=KerGetKernelWendlandWab(rr2);
			}
	  
      //-Obtiene masa de particula p2 en caso de existir floatings.
	  //-Obtains mass of particle p2 if any floating bodies exist.
     // bool ftp2;         //-Indica si es floating. //-indicates if it is floating.
      //float ftmassp2;    //-Contiene masa de particula floating o massp2 si es bound o fluid. //-Contains mass of floating body or massf if fluid.
     // bool compute=true; //-Se desactiva cuando se usa DEM y es float-float o float-bound. //-Deactivated when DEM is used and is float-float or float-bound.
      /*if(USE_FLOATING){
        const word cod=code[p2];
        ftp2=(CODE_GetType(cod)==CODE_TYPE_FLOATING);
        ftmassp2=(ftp2? ftomassp[CODE_GetTypeValue(cod)]: massp2);
        //if(ftp2 && (tdelta==DELTA_Dynamic || tdelta==DELTA_DynamicExt))deltap1=FLT_MAX;
				//if(ftp2 && tshifting==SHIFT_NoBound)shiftposp1.x=FLT_MAX; //-Con floatings anula shifting. //-Cancels shifting with floating bodies
        //compute=!(USE_DEM && ftp1 && (boundp2 || ftp2)); //-Se desactiva cuando se usa DEM y es float-float o float-bound. //-Deactivated when DEM is used and is float-float or float-bound.
      }*/

      //-Shifting correction
      const float volume=massp2/CTE.rhopzero;
      const float tensile=tensiler*powf(Wab/Wab1,tensilen);
      shiftposp1.x+=volume*frx; //-For boundary do not use shifting / Con boundary anula shifting.
      shiftposp1.y+=volume*fry;
      shiftposp1.z+=volume*frz;
			sumtensilep1.x+=volume*tensile*frx;
			sumtensilep1.y+=volume*tensile*fry;
			sumtensilep1.z+=volume*tensile*frz;
      divrp1-=volume*(drx*frx+dry*fry+drz*frz);
			dwxp1.x-=volume*frx*drx; dwxp1.y-=volume*frx*dry; dwxp1.z-=volume*frx*drz;
			dwyp1.x-=volume*fry*drx; dwyp1.y-=volume*fry*dry; dwyp1.z-=volume*fry*drz;
			dwzp1.x-=volume*frz*drx; dwzp1.y-=volume*frz*dry; dwzp1.z-=volume*frz*drz;
    }
  }
}

template<TpKernel tker,TpFtMode ftmode> __global__ void KerInteractionForcesShifting1
  (unsigned n,unsigned pinit,int hdiv,uint4 nc,unsigned cellfluid,float viscob,float viscof
  ,const int2 *begincell,int3 cellzero,const unsigned *dcell,const float *ftomassp
  ,const double2 *posxy,const double *posz,float4 *velrhop,const word *code
  ,TpShifting tshifting,float3 *shiftpos,float *divr,const float tensilen,const float tensiler,float3 *sumtensile,const float freesurface,const float boundaryfs,float3 *dwxcorrg,float3 *dwycorrg,float3 *dwzcorrg)
{
  unsigned p=blockIdx.y*gridDim.x*blockDim.x + blockIdx.x*blockDim.x + threadIdx.x; //-Nº de la partícula //-NI of the particle
  if(p<n){
    unsigned p1=p+pinit;      //-Nº de particula. //-NI of particle
		const unsigned Correctp1=p;
    float Wab1;
		if(tker==KERNEL_Quintic) Wab1=KerGetKernelQuinticWab(CTE.dp*CTE.dp);
		else if(tker==KERNEL_Wendland) Wab1=KerGetKernelWendlandWab(CTE.dp*CTE.dp);

    //-Vars para Shifting.
		//-Variables for Shifting.
    float3 shiftposp1=make_float3(0,0,0);
		float3 sumtensilep1=make_float3(0,0,0);
    float  divrp1=0;
		double3 dwxp1=make_double3(0,0,0); double3 dwyp1=make_double3(0,0,0); double3 dwzp1=make_double3(0,0,0);
    //-Obtiene datos de particula p1 en caso de existir floatings.
	//-Obtains data of particle p1 in case there are floating bodies.
    bool ftp1;       //-Indica si es floating. //-Indicates if it is floating.
    float ftmassp1;  //-Contiene masa de particula floating o 1.0f si es fluid. //-Contains floating particle mass or 1.0f if it is fluid.
    /*if(USE_FLOATING){
      const word cod=code[p1];
      ftp1=(CODE_GetType(cod)==CODE_TYPE_FLOATING);
      ftmassp1=(ftp1? ftomassp[CODE_GetTypeValue(cod)]: 1.f);
      //if(ftp1 && (tdelta==DELTA_Dynamic || tdelta==DELTA_DynamicExt))deltap1=FLT_MAX;
      //if(ftp1 && shift)shiftposp1.x=FLT_MAX;  //-Para floatings no se calcula shifting. //-Shifting is not calculated for floating bodies.
    }*/

    //-Obtiene datos basicos de particula p1.
	//-Obtains basic data of particle p1.
    double3 posdp1;
    float3 velp1;
    KerGetParticleData(p1,posxy,posz,velrhop,velp1,posdp1);

    //-Obtiene limites de interaccion
	//-Obtains interaction limits
    int cxini,cxfin,yini,yfin,zini,zfin;
    KerGetInteractionCells(dcell[p1],hdiv,nc,cellzero,cxini,cxfin,yini,yfin,zini,zfin);

    //-Interaccion con Fluidas.
	//-Interaction with fluids.
    for(int z=zini;z<zfin;z++){
      int zmod=(nc.w)*z+cellfluid; //-Le suma donde empiezan las celdas de fluido. //-The sum showing where fluid cells start
      for(int y=yini;y<yfin;y++){
        int ymod=zmod+nc.x*y;
        unsigned pini,pfin=0;
        for(int x=cxini;x<cxfin;x++){
          int2 cbeg=begincell[x+ymod];
          if(cbeg.y){
            if(!pfin)pini=cbeg.x;
            pfin=cbeg.y;
          }
        }
        if(pfin){
		      KerInteractionForcesShifting2<tker,ftmode> (false,p1,pini,pfin,viscob,ftomassp,posxy,posz,velrhop,code,CTE.massf,ftmassp1,ftp1,posdp1,velp1,tshifting,shiftposp1,Wab1,tensilen,tensiler,divrp1,sumtensilep1,divr,freesurface,boundaryfs,dwxp1,dwyp1,dwzp1);
        }
	    }
    }

    if(shiftposp1.x||shiftposp1.y||shiftposp1.z||divrp1){
      shiftpos[Correctp1].x=shiftposp1.x; shiftpos[Correctp1].y=shiftposp1.y; shiftpos[Correctp1].z=shiftposp1.z;
      shiftposp1=make_float3(0,0,0);
      divr[p1]=divrp1;
			divrp1=0;
			sumtensile[Correctp1].x=sumtensilep1.x; sumtensile[Correctp1].y=sumtensilep1.y; sumtensile[Correctp1].z=sumtensilep1.z;
			sumtensilep1=make_float3(0,0,0);
			dwxcorrg[Correctp1].x=float(dwxp1.x); dwxcorrg[Correctp1].y=float(dwxp1.y); dwxcorrg[Correctp1].z=float(dwxp1.z); 
			dwycorrg[Correctp1].x=float(dwyp1.x); dwycorrg[Correctp1].y=float(dwyp1.y); dwycorrg[Correctp1].z=float(dwyp1.z); 
			dwzcorrg[Correctp1].x=float(dwzp1.x); dwzcorrg[Correctp1].y=float(dwzp1.y); dwzcorrg[Correctp1].z=float(dwzp1.z); 
			dwxp1=make_double3(0,0,0); dwyp1=make_double3(0,0,0); dwzp1=make_double3(0,0,0);
    }

    //-Interaccion con contorno.
	//-Interaction with boundaries.
    for(int z=zini;z<zfin;z++){
      int zmod=(nc.w)*z;
      for(int y=yini;y<yfin;y++){
        int ymod=zmod+nc.x*y;
        unsigned pini,pfin=0;
        for(int x=cxini;x<cxfin;x++){
          int2 cbeg=begincell[x+ymod];
          if(cbeg.y){
            if(!pfin)pini=cbeg.x;
            pfin=cbeg.y;
          }
        }
        if(pfin){
		      KerInteractionForcesShifting2<tker,ftmode> (true,p1,pini,pfin,viscof,ftomassp,posxy,posz,velrhop,code,CTE.massf,ftmassp1,ftp1,posdp1,velp1,tshifting,shiftposp1,Wab1,tensilen,tensiler,divrp1,sumtensilep1,divr,freesurface,boundaryfs,dwxp1,dwyp1,dwzp1);
        }
      }
    }
    
    if(shiftposp1.x||shiftposp1.y||shiftposp1.z||divrp1){
			shiftpos[Correctp1].x+=shiftposp1.x; shiftpos[Correctp1].y+=shiftposp1.y; shiftpos[Correctp1].z+=shiftposp1.z;
      divr[p1]+=divrp1;
			sumtensile[Correctp1].x+=sumtensilep1.x; sumtensile[Correctp1].y+=sumtensilep1.y; sumtensile[Correctp1].z+=sumtensilep1.z;
			dwxcorrg[Correctp1].x+=float(dwxp1.x); dwxcorrg[Correctp1].y+=float(dwxp1.y); dwxcorrg[Correctp1].z+=float(dwxp1.z); 
			dwycorrg[Correctp1].x+=float(dwyp1.x); dwycorrg[Correctp1].y+=float(dwyp1.y); dwycorrg[Correctp1].z+=float(dwyp1.z); 
			dwzcorrg[Correctp1].x+=float(dwzp1.x); dwzcorrg[Correctp1].y+=float(dwzp1.y); dwzcorrg[Correctp1].z+=float(dwzp1.z); 
		}
  }
}

void Interaction_Shifting
  (TpKernel tkernel,TpSlipCond tslipcond,bool simulate2d,bool floating,bool usedem,TpCellMode cellmode,float viscob,float viscof,unsigned bsfluid,unsigned bsbound
  ,unsigned np,unsigned npb,unsigned npbok,tuint3 ncells
  ,const int2 *begincell,tuint3 cellmin,const unsigned *dcell
  ,const double2 *posxy,const double *posz
  ,float4 *velrhop,const word *code,const float *ftomassp
  ,TpShifting tshifting,float3 *shiftpos,float *divr,const float tensilen,const float tensiler
	,float3 *sumtensile,const float freesurface,const float boundaryfs,const unsigned *idp
	,const double3 *mirrorPos,const unsigned *mirrorCell,float3 *dwxcorrg,float3 *dwycorrg,float3 *dwzcorrg,float4 *mls,unsigned *row,const double pistonposx)
{
  const unsigned npf=np-npb;
  const int hdiv=(cellmode==CELLMODE_H? 2: 1);
  const uint4 nc=make_uint4(ncells.x,ncells.y,ncells.z,ncells.x*ncells.y);
  const unsigned cellfluid=nc.w*nc.z+1;
  const int3 cellzero=make_int3(cellmin.x,cellmin.y,cellmin.z);
  //-Interaccion Fluid-Fluid & Fluid-Bound
  //-Interaction Fluid-Fluid & Fluid-Bound
  if(npf){
    dim3 sgridf=GetGridSize(npf,bsfluid);
		dim3 sgridb=GetGridSize(npb,bsbound);

		if(tkernel==KERNEL_Quintic){    const TpKernel tker=KERNEL_Quintic;
			if(simulate2d) KerMLSBoundary2D<tker> <<<sgridb,bsbound>>> (npbok,hdiv,nc,begincell,cellzero,dcell,posxy,posz,code,idp,mirrorPos,mirrorCell,mls);
			else KerMLSBoundary3D<tker> <<<sgridb,bsbound>>> (npbok,hdiv,nc,begincell,cellzero,dcell,posxy,posz,code,idp,mirrorPos,mirrorCell,mls);
			KerInteractionForcesBound<tker> <<<sgridb,bsbound>>> (simulate2d,tslipcond,npbok,hdiv,nc,begincell,cellzero,dcell,ftomassp,posxy,posz,velrhop,code,idp,divr,mirrorPos,mirrorCell,mls,row,pistonposx);
			KerInteractionCorrectBoundDivr<tker> <<<sgridb,bsbound>>> (npbok,hdiv,nc,begincell,cellzero,dcell,ftomassp,posxy,posz,velrhop,code,idp,divr,mirrorPos,mirrorCell,boundaryfs);
			
			if(!floating)   KerInteractionForcesShifting1<tker,FTMODE_None> <<<sgridf,bsfluid>>> (npf,npb,hdiv,nc,cellfluid,viscob,viscof,begincell,cellzero,dcell,ftomassp,posxy,posz,velrhop,code,tshifting,shiftpos,divr,tensilen,tensiler,sumtensile,freesurface,boundaryfs,dwxcorrg,dwycorrg,dwzcorrg);
			else if(!usedem)KerInteractionForcesShifting1<tker,FTMODE_Sph> <<<sgridf,bsfluid>>> (npf,npb,hdiv,nc,cellfluid,viscob,viscof,begincell,cellzero,dcell,ftomassp,posxy,posz,velrhop,code,tshifting,shiftpos,divr,tensilen,tensiler,sumtensile,freesurface,boundaryfs,dwxcorrg,dwycorrg,dwzcorrg);
			else            KerInteractionForcesShifting1<tker,FTMODE_Dem> <<<sgridf,bsfluid>>> (npf,npb,hdiv,nc,cellfluid,viscob,viscof,begincell,cellzero,dcell,ftomassp,posxy,posz,velrhop,code,tshifting,shiftpos,divr,tensilen,tensiler,sumtensile,freesurface,boundaryfs,dwxcorrg,dwycorrg,dwzcorrg);
			
			if(simulate2d) KerInverseKernelCor2D <<<sgridf,bsfluid>>> (npf,npb,dwxcorrg,dwzcorrg,code);
			else KerInverseKernelCor3D <<<sgridf,bsfluid>>> (npf,npb,dwxcorrg,dwycorrg,dwzcorrg,code);
		}
		else if(tkernel==KERNEL_Wendland){    const TpKernel tker=KERNEL_Wendland;
			if(simulate2d) KerMLSBoundary2D<tker> <<<sgridb,bsbound>>> (npbok,hdiv,nc,begincell,cellzero,dcell,posxy,posz,code,idp,mirrorPos,mirrorCell,mls);
			else KerMLSBoundary3D<tker> <<<sgridb,bsbound>>> (npbok,hdiv,nc,begincell,cellzero,dcell,posxy,posz,code,idp,mirrorPos,mirrorCell,mls);
			KerInteractionForcesBound<tker> <<<sgridb,bsbound>>> (simulate2d,tslipcond,npbok,hdiv,nc,begincell,cellzero,dcell,ftomassp,posxy,posz,velrhop,code,idp,divr,mirrorPos,mirrorCell,mls,row,pistonposx);
			KerInteractionCorrectBoundDivr<tker> <<<sgridb,bsbound>>> (npbok,hdiv,nc,begincell,cellzero,dcell,ftomassp,posxy,posz,velrhop,code,idp,divr,mirrorPos,mirrorCell,boundaryfs);
			
			if(!floating)   KerInteractionForcesShifting1<tker,FTMODE_None> <<<sgridf,bsfluid>>> (npf,npb,hdiv,nc,cellfluid,viscob,viscof,begincell,cellzero,dcell,ftomassp,posxy,posz,velrhop,code,tshifting,shiftpos,divr,tensilen,tensiler,sumtensile,freesurface,boundaryfs,dwxcorrg,dwycorrg,dwzcorrg);
			else if(!usedem)KerInteractionForcesShifting1<tker,FTMODE_Sph> <<<sgridf,bsfluid>>> (npf,npb,hdiv,nc,cellfluid,viscob,viscof,begincell,cellzero,dcell,ftomassp,posxy,posz,velrhop,code,tshifting,shiftpos,divr,tensilen,tensiler,sumtensile,freesurface,boundaryfs,dwxcorrg,dwycorrg,dwzcorrg);
			else            KerInteractionForcesShifting1<tker,FTMODE_Dem> <<<sgridf,bsfluid>>> (npf,npb,hdiv,nc,cellfluid,viscob,viscof,begincell,cellzero,dcell,ftomassp,posxy,posz,velrhop,code,tshifting,shiftpos,divr,tensilen,tensiler,sumtensile,freesurface,boundaryfs,dwxcorrg,dwycorrg,dwzcorrg);
			
			if(simulate2d) KerInverseKernelCor2D <<<sgridf,bsfluid>>> (npf,npb,dwxcorrg,dwzcorrg,code);
			else KerInverseKernelCor3D <<<sgridf,bsfluid>>> (npf,npb,dwxcorrg,dwycorrg,dwzcorrg,code);
		}
	}
}

template<bool floating> __global__ void KerComputeShift
  (unsigned npf,unsigned npb,const float3 *shiftpos,word *code,double2 *movxy,double *movz)
{
  unsigned p=blockIdx.y*gridDim.x*blockDim.x + blockIdx.x*blockDim.x + threadIdx.x; //-Nº de la partícula //-NI of the particle.
  if(p<npf){
    unsigned p1=p+npb;
		const unsigned Correctp1=p;
    const float3 rshiftpos=shiftpos[Correctp1];
    if(!floating || CODE_GetType(code[p1])==CODE_TYPE_FLUID){//-Particulas: Fluid //-Particles: Fluid
      double dx=double(rshiftpos.x);
      double dy=double(rshiftpos.y);
      double dz=double(rshiftpos.z);
      movxy[p1]=make_double2(dx,dy);
      movz[p1]=dz;
    }
  }
}

void ComputeShift(bool floating,const unsigned bsfluid,unsigned np,unsigned npb,const float3 *shiftpos
  ,word *code,double2 *movxy,double *movz)
{
  const unsigned npf=np-npb;
  if(npf){
    dim3 sgridf=GetGridSize(npf,bsfluid);
    if(floating)KerComputeShift<true>  <<<sgridf,bsfluid>>> (npf,npb,shiftpos,code,movxy,movz);
    else        KerComputeShift<false> <<<sgridf,bsfluid>>> (npf,npb,shiftpos,code,movxy,movz);
  }
}

template<TpKernel tker> __device__ void KerCalcShiftVelocity
  (const bool fluid,const unsigned &pini,const unsigned &pfin,const double2 *posxy,const double *posz,double3 posdp1
	,const float3 velp1,const float4 *velrhop,const float3 dwx,const float3 dwy,const float3 dwz,const float massp2,const float RhopZero,const word *code,const unsigned *idp
	,const float *divr,const float boundaryfs,float3 &gradvx,float3 &gradvy,float3 &gradvz)
{
	float volumep2=massp2/RhopZero; //Volume of particle j
  for(int p2=pini;p2<pfin;p2++)if(!(!fluid&&divr[p2]<boundaryfs)){
    float drx,dry,drz;
    KerGetParticlesDr(p2,posxy,posz,posdp1,drx,dry,drz);
    float rr2=drx*drx+dry*dry+drz*drz;
    if(rr2<=CTE.fourh2 && rr2>=ALMOSTZERO){
      //-Wendland kernel.
      float frx,fry,frz;
      if(tker==KERNEL_Quintic) KerGetKernelQuintic(rr2,drx,dry,drz,frx,fry,frz);
			else if(tker==KERNEL_Wendland) KerGetKernelWendland(rr2,drx,dry,drz,frx,fry,frz);

			const float temp_x=frx*dwx.x+fry*dwy.x+frz*dwz.x;
			const float temp_y=frx*dwx.y+fry*dwy.y+frz*dwz.y;
			const float temp_z=frx*dwx.z+fry*dwy.z+frz*dwz.z;

			float dvx=velp1.x-velrhop[p2].x, dvy=velp1.y-velrhop[p2].y, dvz=velp1.z-velrhop[p2].z;
			gradvx.x+=temp_x*dvx*volumep2; gradvx.y+=temp_y*dvx*volumep2; gradvx.z+=temp_z*dvx*volumep2;
			gradvy.x+=temp_x*dvy*volumep2; gradvy.y+=temp_y*dvy*volumep2; gradvy.z+=temp_z*dvy*volumep2;
			gradvz.x+=temp_x*dvz*volumep2; gradvz.y+=temp_y*dvz*volumep2; gradvz.z+=temp_z*dvz*volumep2;   
		}
  }
}

template<TpKernel tker> __global__ void KerFindShiftVelocity
  (unsigned n,unsigned pinit,int hdiv,uint4 nc,unsigned cellfluid,const int2 *begincell,int3 cellzero,const unsigned *dcell
  ,const double2 *posxy,const double *posz,float4 *velrhop,const float3 *dwxCorr,const float3 *dwyCorr,const float3 *dwzCorr,const float *divr,const word *code
  ,const unsigned *idp,const float boundaryfs,float3 *shiftpos,float3 *shiftvel)
{
  unsigned p=blockIdx.y*gridDim.x*blockDim.x + blockIdx.x*blockDim.x + threadIdx.x; //-Nº de la partícula //-NI of the particle
  if(p<n){
    unsigned p1=p+pinit;      //-Nº de particula. //-NI of particle
		const unsigned Correctp1=p;
   
		//-Obtiene datos basicos de particula p1.
  	//-Obtains basic data of particle p1.
    double3 posdp1=make_double3(posxy[p1].x,posxy[p1].y,posz[p1]);
		float3 velp1=make_float3(velrhop[p1].x,velrhop[p1].y,velrhop[p1].z);
		float3 shift=make_float3(shiftpos[Correctp1].x,shiftpos[Correctp1].y,shiftpos[Correctp1].z);
		float3 gradvx=make_float3(0,0,0);
		float3 gradvy=make_float3(0,0,0);
		float3 gradvz=make_float3(0,0,0);
    //-Obtiene limites de interaccion
	  //-Obtains interaction limits
    int cxini,cxfin,yini,yfin,zini,zfin;
    KerGetInteractionCells(dcell[p1],hdiv,nc,cellzero,cxini,cxfin,yini,yfin,zini,zfin);
        
    for(int fluid=0;fluid<=1;fluid++){
			for(int z=zini;z<zfin;z++){
				int zmod=(nc.w)*z+(cellfluid*fluid); //-Le suma donde empiezan las celdas de fluido. //-The sum showing where fluid cells start
				for(int y=yini;y<yfin;y++){
					int ymod=zmod+nc.x*y;
					unsigned pini,pfin=0;
					for(int x=cxini;x<cxfin;x++){
						int2 cbeg=begincell[x+ymod];
						if(cbeg.y){
							if(!pfin)pini=cbeg.x;
							pfin=cbeg.y;
						}
					}
					if(pfin){
						KerCalcShiftVelocity<tker> (fluid,pini,pfin,posxy,posz,posdp1,velp1,velrhop,dwxCorr[Correctp1],dwyCorr[Correctp1],dwzCorr[Correctp1],CTE.massf,CTE.rhopzero,code,idp,divr,boundaryfs,gradvx,gradvy,gradvz);
					}
				}
			}
		}

		shiftvel[Correctp1].x=velp1.x+gradvx.x*shift.x+gradvx.y*shift.y+gradvx.z*shift.z;
		shiftvel[Correctp1].y=velp1.y+gradvy.x*shift.x+gradvy.y*shift.y+gradvy.z*shift.z;
		shiftvel[Correctp1].z=velp1.z+gradvz.x*shift.x+gradvz.y*shift.y+gradvz.z*shift.z;
  }
}

template<bool wavegen> __global__ void KerCorrectShiftVelocity
  (unsigned n,unsigned pinit,float4 *velrhop,float3 *shiftvel,const double2 *posxy,const double dampingpoint,const double dampinglength)
{
  unsigned p=blockIdx.y*gridDim.x*blockDim.x + blockIdx.x*blockDim.x + threadIdx.x; //-Nº de la partícula //-NI of the particle
  if(p<n){
    unsigned p1=p+pinit;      //-Nº de particula. //-NI of particle
		const unsigned Correctp1=p;
		velrhop[p1].x=shiftvel[Correctp1].x;
		velrhop[p1].y=shiftvel[Correctp1].y;
		velrhop[p1].z=shiftvel[Correctp1].z;

		if(wavegen){
			const double xp1=posxy[p1].x;
			KerDampingZone(xp1,velrhop[p1],dampingpoint,dampinglength);
		}
  }
}

void CorrectShiftVelocity(const bool wavegen,TpKernel tkernel,TpCellMode cellmode,const unsigned bsbound,const unsigned bsfluid,unsigned np,unsigned npb,unsigned npbok,tuint3 ncells,const int2 *begincell,tuint3 cellmin
	,const unsigned *dcell,const double2 *posxy,const double *posz,float4 *velrhop,const float3 *dwxCorr,const float3 *dwyCorr,const float3 *dwzCorr
  ,const unsigned *idp,const float *divr,const word *code,const float boundaryfs,float3 *shiftpos,float3 *shiftvel,const double dampingpoint,const double dampinglength){
  const unsigned npf=np-npb;
  const int hdiv=(cellmode==CELLMODE_H? 2: 1);
  const uint4 nc=make_uint4(ncells.x,ncells.y,ncells.z,ncells.x*ncells.y);
  const unsigned cellfluid=nc.w*nc.z+1;
  const int3 cellzero=make_int3(cellmin.x,cellmin.y,cellmin.z);
  //-Interaccion Fluid-Fluid & Fluid-Bound
  //-Interaction Fluid-Fluid & Fluid-Bound
  if(npf){
    dim3 sgridf=GetGridSize(npf,bsfluid);

		if(tkernel==KERNEL_Quintic){    const TpKernel tker=KERNEL_Quintic;
			KerFindShiftVelocity<tker> <<<sgridf,bsfluid>>> (npf,npb,hdiv,nc,cellfluid,begincell,cellzero,dcell,posxy,posz,velrhop,dwxCorr,dwyCorr,dwzCorr,divr,code,idp,boundaryfs,shiftpos,shiftvel);
		}
		else if(tkernel==KERNEL_Wendland){    const TpKernel tker=KERNEL_Wendland;
			KerFindShiftVelocity<tker> <<<sgridf,bsfluid>>> (npf,npb,hdiv,nc,cellfluid,begincell,cellzero,dcell,posxy,posz,velrhop,dwxCorr,dwyCorr,dwzCorr,divr,code,idp,boundaryfs,shiftpos,shiftvel);
		}

		if(wavegen) KerCorrectShiftVelocity<true> <<<sgridf,bsfluid>>> (npf,npb,velrhop,shiftvel,posxy,dampingpoint,dampinglength);
		else KerCorrectShiftVelocity<false> <<<sgridf,bsfluid>>> (npf,npb,velrhop,shiftvel,posxy,dampingpoint,dampinglength);
	}
}

}