/*
 <DUALSPHYSICS>  Copyright (c) 2015, Jose M. Dominguez et al. (see http://dual.sphysics.org/index.php/developers/). 
 EPHYSLAB Environmental Physics Laboratory, Universidade de Vigo, Ourense, Spain.
 School of Mechanical, Aerospace and Civil Engineering, University of Manchester, Manchester, U.K.
 This file is part of DualSPHysics. 
 DualSPHysics is free software: you can redistribute it and/or modify it under the terms of the GNU General Public License as published by
 the Free Software Foundation, either version 3 of the License, or (at your option) any later version. 
 DualSPHysics is distributed in the hope that it will be useful, but WITHOUT ANY WARRANTY; without even the implied warranty of
 MERCHANTABILITY or FITNESS FOR A PARTICULAR PURPOSE.  See the GNU General Public License for more details. 
 You should have received a copy of the GNU General Public License, along with DualSPHysics. If not, see <http://www.gnu.org/licenses/>. 
*/

#include "JSphGpu_ker.h"
#include "JBlockSizeAuto.h"
#include "JLog2.h"
#include <cfloat>
#include <math_constants.h>
//#include "JDgKerPrint.h"
//#include "JDgKerPrint_ker.h"

#pragma warning(disable : 4267) //Cancels "warning C4267: conversion from 'size_t' to 'int', possible loss of data"
#pragma warning(disable : 4244) //Cancels "warning C4244: conversion from 'unsigned __int64' to 'unsigned int', possible loss of data"
#pragma warning(disable : 4503) //Cancels "warning C4503: decorated name length exceeded, name was truncated"
#include <cuda_runtime.h>
#include <thrust/device_vector.h>
#include <thrust/sort.h>

#include <iostream>
#include <cstdlib>
#include <string>
#include <cuda.h>

#define VIENNACL_WITH_CUDA
#include "viennacl/vector.hpp"
#include "viennacl/compressed_matrix.hpp"
#include "viennacl/linalg/bicgstab.hpp"
#include "viennacl/linalg/gmres.hpp"
#include "viennacl/tools/timer.hpp"
#include "viennacl/linalg/norm_2.hpp"
#include "viennacl/linalg/jacobi_precond.hpp"
#include "viennacl/forwards.h"
#include "viennacl/linalg/amg.hpp"
#include "viennacl/linalg/prod.hpp"

__constant__ StCteInteraction CTE;

namespace cusph{
  
//==============================================================================
/// Comprueba error y finaliza ejecucion.
/// Checks mistake and ends execution.
//==============================================================================
#define CheckErrorCuda(text)  __CheckErrorCuda(text,__FILE__,__LINE__)
void __CheckErrorCuda(const char *text,const char *file,const int line){
  cudaError_t err=cudaGetLastError();
  if(cudaSuccess!=err){
    char cad[2048]; 
    sprintf(cad,"%s (CUDA error: %s -> %s:%i).\n",text,cudaGetErrorString(err),file,line); 
    throw std::string(cad);
  }
}

//==============================================================================
/// Devuelve tamaño de gridsize segun parametros.
/// Returns size of gridsize according to parameters.
//==============================================================================
dim3 GetGridSize(unsigned n,unsigned blocksize){
  dim3 sgrid;//=dim3(1,2,3);
  unsigned nb=unsigned(n+blocksize-1)/blocksize;//-Numero total de bloques a lanzar. //-Total block number to throw.
  sgrid.x=(nb<=65535? nb: unsigned(sqrt(float(nb))));
  sgrid.y=(nb<=65535? 1: unsigned((nb+sgrid.x-1)/sgrid.x));
  sgrid.z=1;
  return(sgrid);
}

//==============================================================================
/// Reduccion mediante maximo de valores float en memoria shared para un warp.
/// Reduction using maximum of float values in shared memory for a warp.
//==============================================================================
template <unsigned blockSize> __device__ void KerReduMaxFloatWarp(volatile float* sdat,unsigned tid) {
  if(blockSize>=64)sdat[tid]=max(sdat[tid],sdat[tid+32]);
  if(blockSize>=32)sdat[tid]=max(sdat[tid],sdat[tid+16]);
  if(blockSize>=16)sdat[tid]=max(sdat[tid],sdat[tid+8]);
  if(blockSize>=8)sdat[tid]=max(sdat[tid],sdat[tid+4]);
  if(blockSize>=4)sdat[tid]=max(sdat[tid],sdat[tid+2]);
  if(blockSize>=2)sdat[tid]=max(sdat[tid],sdat[tid+1]);
}

//==============================================================================
/// ES:
/// Acumula la suma de n valores del vector dat[], guardando el resultado al 
/// principio de res[] (Se usan tantas posiciones del res[] como bloques, 
/// quedando el resultado final en res[0]).
/// - EN:
/// Accumulates the sum of n values of array dat[], storing the result in 
/// the beginning of res[].(Many positions of res[] are used as blocks, 
/// storing the final result in res[0]).
//==============================================================================
template <unsigned blockSize> __global__ void KerReduMaxFloat(unsigned n,unsigned ini,const float *dat,float *res){
  extern __shared__ float sdat[];
  unsigned tid=threadIdx.x;
  unsigned c=blockIdx.y*gridDim.x*blockDim.x + blockIdx.x*blockDim.x + threadIdx.x;
  sdat[tid]=(c<n? dat[c+ini]: -FLT_MAX);
  __syncthreads();
  if(blockSize>=512){ if(tid<256)sdat[tid]=max(sdat[tid],sdat[tid+256]);  __syncthreads(); }
  if(blockSize>=256){ if(tid<128)sdat[tid]=max(sdat[tid],sdat[tid+128]);  __syncthreads(); }
  if(blockSize>=128){ if(tid<64) sdat[tid]=max(sdat[tid],sdat[tid+64]);   __syncthreads(); }
  if(tid<32)KerReduMaxFloatWarp<blockSize>(sdat,tid);
  if(tid==0)res[blockIdx.y*gridDim.x + blockIdx.x]=sdat[0];
}

//==============================================================================
/// ES:
/// Devuelve el maximo de un vector, usando resu[] como vector auxiliar. El tamaño
/// de resu[] debe ser >= a (N/SPHBSIZE+1)+(N/(SPHBSIZE*SPHBSIZE)+SPHBSIZE)
/// - EN:
/// Returns the maximum of an array, using resu[] as auxiliar array.
/// Size of resu[] must be >= a (N/SPHBSIZE+1)+(N/(SPHBSIZE*SPHBSIZE)+SPHBSIZE)
//==============================================================================
float ReduMaxFloat(unsigned ndata,unsigned inidata,float* data,float* resu){
	float resf;
  if(1){
    unsigned n=ndata,ini=inidata;
    unsigned smemSize=SPHBSIZE*sizeof(float);
    dim3 sgrid=GetGridSize(n,SPHBSIZE);
    unsigned n_blocks=sgrid.x*sgrid.y;
    float *dat=data;
    float *resu1=resu,*resu2=resu+n_blocks;
    float *res=resu1;
    while(n>1){
      KerReduMaxFloat<SPHBSIZE><<<sgrid,SPHBSIZE,smemSize>>>(n,ini,dat,res);
      n=n_blocks; ini=0;
      sgrid=GetGridSize(n,SPHBSIZE);  
      n_blocks=sgrid.x*sgrid.y;
      if(n>1){
        dat=res; res=(dat==resu1? resu2: resu1); 
      }
    }
	  
		if(ndata>1)cudaMemcpy(&resf,res,sizeof(float),cudaMemcpyDeviceToHost);
		else cudaMemcpy(&resf,data,sizeof(float),cudaMemcpyDeviceToHost);
  }

	//else{//-Using Thrust library is slower than ReduMasFloat() with ndata < 5M.
  //  thrust::device_ptr<float> dev_ptr(data);
  //  resf=thrust::reduce(dev_ptr,dev_ptr+ndata,-FLT_MAX,thrust::maximum<float>());
  //}
  return(resf);
}

//==============================================================================
/// ES:
/// Acumula la suma de n valores del vector dat[].w, guardando el resultado al 
/// principio de res[] (Se usan tantas posiciones del res[] como bloques, 
/// quedando el resultado final en res[0]).
/// - EN:
/// Accumulates the sum of n values of array dat[], storing the result in 
/// the beginning of res[].(Many positions of res[] are used as blocks, 
/// storing the final result in res[0]).
//==============================================================================
template <unsigned blockSize> __global__ void KerReduMaxFloat_w(unsigned n,unsigned ini,const float4 *dat,float *res){
  extern __shared__ float sdat[];
  unsigned tid=threadIdx.x;
  unsigned c=blockIdx.y*gridDim.x*blockDim.x + blockIdx.x*blockDim.x + threadIdx.x;
  sdat[tid]=(c<n? dat[c+ini].w: -FLT_MAX);
  __syncthreads();
  if(blockSize>=512){ if(tid<256)sdat[tid]=max(sdat[tid],sdat[tid+256]);  __syncthreads(); }
  if(blockSize>=256){ if(tid<128)sdat[tid]=max(sdat[tid],sdat[tid+128]);  __syncthreads(); }
  if(blockSize>=128){ if(tid<64) sdat[tid]=max(sdat[tid],sdat[tid+64]);   __syncthreads(); }
  if(tid<32)KerReduMaxFloatWarp<blockSize>(sdat,tid);
  if(tid==0)res[blockIdx.y*gridDim.x + blockIdx.x]=sdat[0];
}

//==============================================================================
/// ES:
/// Devuelve el maximo de la componente w de un vector float4, usando resu[] como 
/// vector auxiliar. El tamaño de resu[] debe ser >= a (N/SPHBSIZE+1)+(N/(SPHBSIZE*SPHBSIZE)+SPHBSIZE)
/// - EN:
/// Returns the maximum of an array, using resu[] as auxiliar array.
/// Size of resu[] must be >= a (N/SPHBSIZE+1)+(N/(SPHBSIZE*SPHBSIZE)+SPHBSIZE)
//==============================================================================
float ReduMaxFloat_w(unsigned ndata,unsigned inidata,float4* data,float* resu){
  unsigned n=ndata,ini=inidata;
  unsigned smemSize=SPHBSIZE*sizeof(float);
  dim3 sgrid=GetGridSize(n,SPHBSIZE);
  unsigned n_blocks=sgrid.x*sgrid.y;
  float *dat=NULL;
  float *resu1=resu,*resu2=resu+n_blocks;
  float *res=resu1;
  while(n>1){
    if(!dat)KerReduMaxFloat_w<SPHBSIZE><<<sgrid,SPHBSIZE,smemSize>>>(n,ini,data,res);
    else KerReduMaxFloat<SPHBSIZE><<<sgrid,SPHBSIZE,smemSize>>>(n,ini,dat,res);
    n=n_blocks; ini=0;
    sgrid=GetGridSize(n,SPHBSIZE);  
    n_blocks=sgrid.x*sgrid.y;
    if(n>1){
      dat=res; res=(dat==resu1? resu2: resu1); 
    }
  }
  float resf;
  if(ndata>1)cudaMemcpy(&resf,res,sizeof(float),cudaMemcpyDeviceToHost);
  else{
    float4 resf4;
    cudaMemcpy(&resf4,data,sizeof(float4),cudaMemcpyDeviceToHost);
    resf=resf4.w;
  }
  return(resf);
}

//==============================================================================
/// Graba constantes para la interaccion a la GPU.
/// Stores constants for the GPU interaction.
//==============================================================================
void CteInteractionUp(const StCteInteraction *cte){
  cudaMemcpyToSymbol(CTE,cte,sizeof(StCteInteraction));
}

//------------------------------------------------------------------------------
/// Inicializa array con el valor indicado.
/// Initialises array with the indicated value.
//------------------------------------------------------------------------------
__global__ void KerInitArray(unsigned n,float3 *v,float3 value)
{
  unsigned p=blockIdx.y*gridDim.x*blockDim.x + blockIdx.x*blockDim.x + threadIdx.x; //-Nº de la particula //-NI of the particle
  if(p<n)v[p]=value;
}

//==============================================================================
/// Inicializa array con el valor indicado.
/// Initialises array with the indicated value.
//==============================================================================
void InitArray(unsigned n,float3 *v,tfloat3 value){
  if(n){
    dim3 sgrid=GetGridSize(n,SPHBSIZE);
    KerInitArray <<<sgrid,SPHBSIZE>>> (n,v,Float3(value));
  }
}

//------------------------------------------------------------------------------
/// Pone v[].y a cero.
/// Sets v[].y to zero.
//------------------------------------------------------------------------------
__global__ void KerResetVely(unsigned npb,unsigned npf,float4 *v)
{
  unsigned p=blockIdx.y*gridDim.x*blockDim.x + blockIdx.x*blockDim.x + threadIdx.x; //-Nº de la partícula //-NI of the particle
  if(p<npf)v[p+npb].y=0;
}

//==============================================================================
// Pone v[].y a cero.
/// Sets v[].y to zero.
//==============================================================================
void ResetVely(unsigned npb,unsigned npf,float4 *v){
  if(npf){
    dim3 sgrid=GetGridSize(npf,SPHBSIZE);
    KerResetVely <<<sgrid,SPHBSIZE>>> (npb,npf,v);
  }
}

//------------------------------------------------------------------------------
/// Pone v[].y a cero.
/// Sets v[].y to zero.
//------------------------------------------------------------------------------
__global__ void KerResetAcey(unsigned npf,double3 *v)
{
  unsigned p=blockIdx.y*gridDim.x*blockDim.x + blockIdx.x*blockDim.x + threadIdx.x; //-Nº de la partícula //-NI of the particle
  if(p<npf)v[p].y=0;
}

//==============================================================================
// Pone v[].y a cero.
/// Sets v[].y to zero.
//==============================================================================
void ResetAcey(unsigned npf,double3 *v){
  if(npf){
    dim3 sgrid=GetGridSize(npf,SPHBSIZE);
    KerResetAcey <<<sgrid,SPHBSIZE>>> (npf,v);
  }
}

__global__ void KerResetBoundVel(unsigned n,double3 *vel,double3 *velpre)
{
  unsigned p=blockIdx.y*gridDim.x*blockDim.x + blockIdx.x*blockDim.x + threadIdx.x; //-Nº de la partícula //-NI of the particle
  if(p<n){
		vel[p].x=velpre[p].x;
		vel[p].y=velpre[p].y;
		vel[p].z=velpre[p].z;
	}
}
void ResetBoundVel(const unsigned npbok,const unsigned bsbound,double3 *vel,double3 *velpre){
  if(npbok){
    dim3 sgridb=GetGridSize(npbok,bsbound);
    KerResetBoundVel <<<sgridb,bsbound>>> (npbok,vel,velpre);
  }
}

__global__ void KerResetrowIndg(const unsigned npplus,unsigned *row,const unsigned npb)
{
  unsigned p=blockIdx.y*gridDim.x*blockDim.x + blockIdx.x*blockDim.x + threadIdx.x; //-Nº de la partícula //-NI of the particle
  if(p<npplus){
		row[p]=npb;
	}
}

void ResetrowIndg(const unsigned npplus,unsigned *row,const unsigned npb){
	if(npplus){
    dim3 sgrid=GetGridSize(npplus,SPHBSIZE);
    KerResetrowIndg <<<sgrid,SPHBSIZE>>> (npplus,row,npb);
  }
}
//------------------------------------------------------------------------------
/// Calculates module^2 of ace.
//------------------------------------------------------------------------------
__global__ void KerComputeAceMod(unsigned n,const float3 *ace,float *acemod)
{
  unsigned p=blockIdx.y*gridDim.x*blockDim.x + blockIdx.x*blockDim.x + threadIdx.x; //-Number of particle.
  if(p<n){
    const float3 r=ace[p];
    acemod[p]=r.x*r.x+r.y*r.y+r.z*r.z;
  }
}

//==============================================================================
/// Calculates module^2 of ace.
//==============================================================================
void ComputeAceMod(unsigned n,const float3 *ace,float *acemod){
  if(n){
    dim3 sgrid=GetGridSize(n,SPHBSIZE);
    KerComputeAceMod <<<sgrid,SPHBSIZE>>> (n,ace,acemod);
  }
}

//------------------------------------------------------------------------------
/// Calculates module^2 of ace, comprobando que la particula sea normal.
//------------------------------------------------------------------------------
__global__ void KerComputeAceMod(unsigned n,const word *code,const float3 *ace,float *acemod)
{
  unsigned p=blockIdx.y*gridDim.x*blockDim.x + blockIdx.x*blockDim.x + threadIdx.x; //-Number of particle.
  if(p<n){
    const float3 r=(CODE_GetSpecialValue(code[p])==CODE_NORMAL? ace[p]: make_float3(0,0,0));
    acemod[p]=r.x*r.x+r.y*r.y+r.z*r.z;
  }
}

//==============================================================================
/// Calculates module^2 of ace, comprobando que la particula sea normal.
//==============================================================================
void ComputeAceMod(unsigned n,const word *code,const float3 *ace,float *acemod){
  if(n){
    dim3 sgrid=GetGridSize(n,SPHBSIZE);
    KerComputeAceMod <<<sgrid,SPHBSIZE>>> (n,code,ace,acemod);
  }
}


//##############################################################################
//# Otros kernels...
//# Other kernels...
//##############################################################################
//------------------------------------------------------------------------------
/// Calculates module^2 of vel.
//------------------------------------------------------------------------------
__global__ void KerComputeVelMod(unsigned n,const float4 *vel,float *velmod)
{
  unsigned p=blockIdx.y*gridDim.x*blockDim.x + blockIdx.x*blockDim.x + threadIdx.x; //-Number of particle.
  if(p<n){
    const float4 r=vel[p];
    velmod[p]=r.x*r.x+r.y*r.y+r.z*r.z;
  }
}

//==============================================================================
/// Calculates module^2 of vel.
//==============================================================================
void ComputeVelMod(unsigned n,const float4 *vel,float *velmod){
  if(n){
    dim3 sgrid=GetGridSize(n,SPHBSIZE);
    KerComputeVelMod <<<sgrid,SPHBSIZE>>> (n,vel,velmod);
  }
}

//##############################################################################
//# Kernels auxiliares para interaccion.
//# Auxiliary kernels for the interaction.
//##############################################################################
//------------------------------------------------------------------------------
/// Devuelve posicion y vel de particula.
/// Returns postion and vel of a particle.
//------------------------------------------------------------------------------
/*__device__ void KerGetParticleData(unsigned p1
  ,const double2 *posxy,const double *posz,const float4 *velrhop
  ,float3 &velp1,double3 &posdp1)
{
  float4 r=velrhop[p1];
  velp1=make_float3(r.x,r.y,r.z);

  double2 pxy=posxy[p1];
  posdp1=make_double3(pxy.x,pxy.y,posz[p1]);
}*/


__device__ void KerGetParticleData(unsigned p1
  ,const double2 *posxy,const double *posz,const double3 *velrhop
  ,double3 &velp1,double3 &posdp1)
{
  double3 r=velrhop[p1];
  velp1=make_double3(r.x,r.y,r.z);

  double2 pxy=posxy[p1];
  posdp1=make_double3(pxy.x,pxy.y,posz[p1]);
}
//------------------------------------------------------------------------------
/// Devuelve drx, dry y drz entre dos particulas.
/// Returns drx, dry and drz between the particles.
//------------------------------------------------------------------------------
__device__ void KerGetParticlesDr(unsigned count,int p2
  ,const double2 *posxy,const double *posz,bool &interact,const double3 &posdp1,double3 fluidVel,double fluidPress
  ,double &drx,double &dry,double &drz,double3 &velp2,double &pressp2,const double PistonPos,const double PistonVel,double &NeumannDist,double RightWall,tfloat3 gravity)
{
	double dp05=0.5*CTE.dp;
	double LeftWall=PistonPos; double LeftWallVel=PistonVel;
	double Bottom=dp05;
	double3 posp2=make_double3(posxy[p2].x,posxy[p2].y,posz[p2]);
	if(count==0){//Fluid particle p2
		interact=true;
		drx=posdp1.x-posp2.x;
		dry=0;
		drz=posdp1.z-posp2.z;
		velp2=fluidVel;
		pressp2=fluidPress;
	}
	else if(count==1){//Boundary LeftWall
		double dist=posp2.x-LeftWall;
		if(dist*dist<=CTE.fourh2){
			interact=true;
			posp2.x=2.0*LeftWall-posp2.x;
			drx=posdp1.x-posp2.x;
			dry=0;
			drz=posdp1.z-posp2.z;
			velp2.x=2.0*LeftWallVel-fluidVel.x;
			velp2.z=fluidVel.z;
			pressp2=fluidPress;
		}
	}
	else if(count==2){//Boundary Bottom
		double dist=posp2.z-Bottom;
		if(dist*dist<=CTE.fourh2){
			interact=true;
			NeumannDist=-2.0*dist;
			posp2.z=2.0*Bottom-posp2.z;
			drx=posdp1.x-posp2.x;
			dry=0;
			drz=posdp1.z-posp2.z;
			velp2.x=fluidVel.x;
			velp2.z=-fluidVel.z;
			pressp2=fluidPress+NeumannDist*gravity.z*CTE.rhopzero;
		}
	}
	else if(count==3){//Boundary RightWall
		double dist=posp2.x-RightWall;
		if(dist*dist<=CTE.fourh2){
			interact=true;
			posp2.x=2.0*RightWall-posp2.x;
			drx=posdp1.x-posp2.x;
			dry=0;
			drz=posdp1.z-posp2.z;
			velp2.x=-fluidVel.x;
			velp2.z=fluidVel.z;
			pressp2=fluidPress;
		}
	}
	else if(count==4){//Boundary BottomLeft
		double distx=posp2.x-LeftWall;
		double distz=posp2.z-Bottom;
		double dist=distx*distx+distz*distz;
		if(dist<=CTE.fourh2){
			interact=true;
			NeumannDist=-2.0*distz;
			posp2.x=2.0*LeftWall-posp2.x;
			posp2.z=2.0*Bottom-posp2.z;
			drx=posdp1.x-posp2.x;
			dry=0;
			drz=posdp1.z-posp2.z;
			velp2.x=-fluidVel.x;
			velp2.z=-fluidVel.z;
			pressp2=fluidPress+NeumannDist*gravity.z*CTE.rhopzero;
		}
	}
	else if(count==5){//Boundary BottomRight
		double distx=posp2.x-RightWall;
		double distz=posp2.z-Bottom;
		double dist=distx*distx+distz*distz;
		if(dist<=CTE.fourh2){
			interact=true;
			NeumannDist=-2.0*distz;
			posp2.x=2.0*RightWall-posp2.x;
			posp2.z=2.0*Bottom-posp2.z;
			drx=posdp1.x-posp2.x;
			dry=0;
			drz=posdp1.z-posp2.z;
			velp2.x=-fluidVel.x;
			velp2.z=-fluidVel.z;
			pressp2=fluidPress+NeumannDist*gravity.z*CTE.rhopzero;
		}
	}
}

//------------------------------------------------------------------------------
/// Devuelve limites de celdas para interaccion.
/// Returns cell limits for the interaction.
//------------------------------------------------------------------------------
__device__ void KerGetInteractionCells(unsigned rcell
  ,int hdiv,const uint4 &nc,const int3 &cellzero
  ,int &cxini,int &cxfin,int &yini,int &yfin,int &zini,int &zfin)
{
  //-Obtiene limites de interaccion
  //-Obtains interaction limits.
  const int cx=PC__Cellx(CTE.cellcode,rcell)-cellzero.x;
  const int cy=PC__Celly(CTE.cellcode,rcell)-cellzero.y;
  const int cz=PC__Cellz(CTE.cellcode,rcell)-cellzero.z;
  //-Codigo para hdiv 1 o 2 pero no cero.
  //-Code for hdiv 1 or 2 but not zero.
  cxini=cx-min(cx,hdiv);
  cxfin=cx+min(nc.x-cx-1,hdiv)+1;
  yini=cy-min(cy,hdiv);
  yfin=cy+min(nc.y-cy-1,hdiv)+1;
  zini=cz-min(cz,hdiv);
  zfin=cz+min(nc.z-cz-1,hdiv)+1;
}

//------------------------------------------------------------------------------
/// Devuelve limites de celdas para interaccion.
/// Returns cell limits for the interaction.
//------------------------------------------------------------------------------
__device__ void KerGetInteractionCells(double px,double py,double pz
  ,int hdiv,const uint4 &nc,const int3 &cellzero
  ,int &cxini,int &cxfin,int &yini,int &yfin,int &zini,int &zfin)
{
  //-Obtiene limites de interaccion
  //-Obtains interaction limits.
  const int cx=int((px-CTE.domposminx)/CTE.scell)-cellzero.x;
  const int cy=int((py-CTE.domposminy)/CTE.scell)-cellzero.y;
  const int cz=int((pz-CTE.domposminz)/CTE.scell)-cellzero.z;
  //-Codigo para hdiv 1 o 2 pero no cero.
  //-Code for hdiv 1 or 2 but not zero.
  cxini=cx-min(cx,hdiv);
  cxfin=cx+min(nc.x-cx-1,hdiv)+1;
  yini=cy-min(cy,hdiv);
  yfin=cy+min(nc.y-cy-1,hdiv)+1;
  zini=cz-min(cz,hdiv);
  zfin=cz+min(nc.z-cz-1,hdiv)+1;
}

//------------------------------------------------------------------------------
/// Devuelve valores de kernel: frx, fry y frz. USADA
/// Returns kernel values: frx, fry and frz. USED
//------------------------------------------------------------------------------
/*__device__ void KerGetKernelQuintic(float rr2,float drx,float dry,float drz
  ,float &frx,float &fry,float &frz)
{
  const float rad=sqrt(rr2);
  const float qq=rad/CTE.h;
  const float Bwen=CTE.bwen;

	//-Quintic Spline
  float fac;
  if(qq<1.0f)fac=Bwen*(-5.0f*powf(3.0f-qq,4.0f)+30.0f*powf(2.0f-qq,4.0f)-75.0f*powf(1.0f-qq,4.0f));
  else if(qq<2.0f)fac=Bwen*(-5.0f*powf(3.0f-qq,4.0f)+30.0f*powf(2.0f-qq,4.0f));
  else if(qq<3.0f)fac=Bwen*(-5.0f*powf(3.0f-qq,4.0f));
  else fac=0;
  fac=fac/rad;

  frx=fac*drx; fry=fac*dry; frz=fac*drz;

}*/

__device__ void KerGetKernelQuintic(double rr2,double drx,double dry,double drz
  ,double &frx,double &fry,double &frz)
{
  const double rad=sqrt(rr2);
	const double h=CTE.h;
  const double qq=rad/h;
  const double Bwen=7.0/(478.0*PI*h*h*h);

	//-Quintic Spline
  double fac;
  if(qq<1.0)fac=Bwen*(-5.0*pow(3.0-qq,4.0)+30.0*pow(2.0-qq,4.0)-75.0*pow(1.0-qq,4.0));
  else if(qq<2.0)fac=Bwen*(-5.0*pow(3.0-qq,4.0)+30.0*pow(2.0-qq,4.0));
  else if(qq<3.0)fac=Bwen*(-5.0*pow(3.0-qq,4.0));
  else fac=0;
  fac=fac/rad;

  frx=fac*drx; fry=fac*dry; frz=fac*drz;

}

__device__ void KerGetKernelWendland(float rr2,float drx,float dry,float drz
  ,float &frx,float &fry,float &frz)
{
  const float rad=sqrt(rr2);
  const float qq=rad/CTE.h;

  //-Wendland kernel.
  const float wqq1=1.f-0.5f*qq;
  const float fac=CTE.bwen*qq*wqq1*wqq1*wqq1/rad;

  frx=fac*drx; fry=fac*dry; frz=fac*drz;
}

//------------------------------------------------------------------------------
/// Devuelve valores de kernel: wab.
/// returns kernel values: wab.
//------------------------------------------------------------------------------
/*__device__ float KerGetKernelQuinticWab(float rr2)
{
  const float rad=sqrt(rr2);
  const float qq=rad/CTE.h;
	const float Awen=CTE.awen;

	//-Quintic Spline
  float wab;
  if(qq<1.0f)wab=Awen*(powf(3.0f-qq,5.0f)-6.0f*powf(2.0f-qq,5.0f)+15.0f*powf(1.0f-qq,5.0f));
  else if(qq<2.0f)wab=Awen*(powf(3.0f-qq,5.0f)-6.0f*powf(2.0f-qq,5.0f));
  else if(qq<3.0f)wab=Awen*(powf(3.0f-qq,5.0f));
  else wab=0;
  return(wab);
}*/

__device__ double KerGetKernelQuinticWab(double rr2)
{
  const double rad=sqrt(rr2);
  const double qq=rad/CTE.h;
	const double h=CTE.h;
	const double Awen=7.0/(478.0*PI*h*h);

	//-Quintic Spline
  double wab;
  if(qq<1.0)wab=Awen*(pow(3.0-qq,5.0)-6.0*pow(2.0-qq,5.0)+15.0*pow(1.0-qq,5.0));
  else if(qq<2.0)wab=Awen*(pow(3.0-qq,5.0)-6.0*pow(2.0-qq,5.0));
  else if(qq<3.0)wab=Awen*(pow(3.0-qq,5.0));
  else wab=0;
  return(wab);
}

__device__ float KerGetKernelWendlandWab(float rr2)
{
  const float rad=sqrt(rr2);
  const float qq=rad/CTE.h;

  //-Wendland kernel.
  const float wqq=2.f*qq+1.f;
  const float wqq1=1.f-0.5f*qq;
  const float wqq2=wqq1*wqq1;

  return(CTE.awen*wqq*wqq2*wqq2);
}

//------------------------------------------------------------------------------
///  Inverse Kernel Correction Matrix
//------------------------------------------------------------------------------

__global__ void KerInverseKernelCor2D(unsigned n,unsigned pinit,double3 *dwxcorrg,double3 *dwzcorrg,const word *code)
{
  unsigned p=blockIdx.y*gridDim.x*blockDim.x + blockIdx.x*blockDim.x + threadIdx.x; //-Nº de la partícula //-NI of the particle
  if(p<n){
		double3 dwx; dwx.x=dwxcorrg[p].x; dwx.z=dwxcorrg[p].z;
		double3 dwz; dwz.x=dwzcorrg[p].x; dwz.z=dwzcorrg[p].z;
		const double det=1.0/(dwx.x*dwz.z-dwz.x*dwx.z);
	
    if(det){
      dwxcorrg[p].x=dwz.z*det;
	    dwxcorrg[p].z=-dwx.z*det; 
	    dwzcorrg[p].x=-dwz.x*det;
	    dwzcorrg[p].z=dwx.x*det;
	  }
  }
}

__global__ void KerInverseKernelCor3D(unsigned n,unsigned pinit,float3 *dwxcorrg,double3 *dwycorrg,float3 *dwzcorrg,const word *code)
{
  unsigned p=blockIdx.y*gridDim.x*blockDim.x + blockIdx.x*blockDim.x + threadIdx.x; //-Nº de la partícula //-NI of the particle
  if(p<n){
		double3 dwx; dwx.x=dwxcorrg[p].x; dwx.y=dwxcorrg[p].y; dwx.z=dwxcorrg[p].z; //  dwx.x   dwx.y   dwx.z
		double3 dwy; dwy.x=dwycorrg[p].x; dwy.y=dwycorrg[p].y; dwy.z=dwycorrg[p].z; //  dwy.x   dwy.y   dwy.z
		double3 dwz; dwz.x=dwzcorrg[p].x; dwz.y=dwzcorrg[p].y; dwz.z=dwzcorrg[p].z; //  dwz.x   dwz.y   dwz.z

		const double det=(dwx.x*dwy.y*dwz.z+dwx.y*dwy.z*dwz.x+dwy.x*dwz.y*dwx.z)-(dwz.x*dwy.y*dwx.z+dwy.x*dwx.y*dwz.z+dwy.z*dwz.y*dwx.x);
		dwxcorrg[p].x=float((dwy.y*dwz.z-dwy.z*dwz.y)/det);
		dwxcorrg[p].y=-float((dwx.y*dwz.z-dwx.z*dwz.y)/det);
		dwxcorrg[p].z=float((dwx.y*dwy.z-dwx.z*dwy.y)/det);
		dwycorrg[p].x=-float((dwy.x*dwz.z-dwy.z*dwz.x)/det);
		dwycorrg[p].y=float((dwx.x*dwz.z-dwx.z*dwz.x)/det);
		dwycorrg[p].z=-float((dwx.x*dwy.z-dwx.z*dwy.x)/det);
		dwzcorrg[p].x=float((dwy.x*dwz.y-dwy.y*dwz.x)/det);
		dwzcorrg[p].y=-float((dwx.x*dwz.y-dwx.y*dwz.x)/det);
		dwzcorrg[p].z=float((dwx.x*dwy.y-dwx.y*dwy.x)/det);
  }
}

template<TpKernel tker,TpFtMode ftmode> __device__ void KerInteractionForcesFluidVisc
  (bool boundp2,unsigned p1,const unsigned &pini,const unsigned &pfin,float visco
  ,const float *ftomassp,const double2 *posxy,const double *posz,const double3 *velrhop,const word *code,const unsigned *idp
  ,float massp2,float ftmassp1,bool ftp1
  ,double3 posdp1,double3 velp1,double pressp1,double3 &acep1,float &divrp1,double3 &dwxp1,double3 &dwyp1,double3 &dwzp1,unsigned &rowCount,const float *divr,const float boundaryfs,const double *pressure,const double PistonPos,const double PistonVel,const double RightWall,tfloat3 gravity)
{
	const float volume=massp2/CTE.rhopzero; //Volume of particle j 
  for(int p2=pini;p2<pfin;p2++){
    double drx,dry,drz;
		bool row=false;
		for(int count=0;count<=5;count++){
			bool interact=false;
			double3 velp2;
			double pressp2;
			double NeumannDist=0;
			KerGetParticlesDr(count,p2,posxy,posz,interact,posdp1,velrhop[p2],pressure[p2],drx,dry,drz,velp2,pressp2,PistonPos,PistonVel,NeumannDist,RightWall,gravity);
			if(interact){
				double rr2=drx*drx+dry*dry+drz*drz;
				if(rr2<=CTE.fourh2 && rr2>=ALMOSTZERO){
					row=true;
					//-Wendland kernel.
					double frx,fry,frz;
					if(tker==KERNEL_Quintic) KerGetKernelQuintic(rr2,drx,dry,drz,frx,fry,frz);
																					//else if(tker==KERNEL_Wendland) KerGetKernelWendland(rr2,drx,dry,drz,frx,fry,frz);
      
				//===== Aceleration ===== 
					const double rDivW=drx*frx+dry*fry+drz*frz;//R.Div(W)
					const double temp=volume*2.0f*visco*rDivW/(rr2+CTE.eta2);
					const double dvx=velp1.x-velp2.x, dvy=velp1.y-velp2.y, dvz=velp1.z-velp2.z;
					acep1.x+=temp*dvx; acep1.y+=temp*dvy; acep1.z+=temp*dvz;

					divrp1-=volume*rDivW;

					dwxp1.x-=volume*frx*drx; dwxp1.y-=volume*frx*dry; dwxp1.z-=volume*frx*drz;
					dwyp1.x-=volume*fry*drx; dwyp1.y-=volume*fry*dry; dwyp1.z-=volume*fry*drz;
					dwzp1.x-=volume*frz*drx; dwzp1.y-=volume*frz*dry; dwzp1.z-=volume*frz*drz;
				}
			}
		}
		if(row&&p1!=p2)rowCount++;
  }
}

//------------------------------------------------------------------------------
/// Realiza la interaccion de una particula con un conjunto de ellas. (Fluid/Float-Fluid/Float/Bound)
/// Interaction of a particle with a set of particles. (Fluid/Float-Fluid/Float/Bound)
//------------------------------------------------------------------------------
template<TpKernel tker,TpFtMode ftmode> __device__ void KerInteractionForcesFluidPresGrad
  (bool boundp2,unsigned p1,const unsigned &pini,const unsigned &pfin,float visco
  ,const float *ftomassp,const double2 *posxy,const double *posz,const double3 *velrhop,const word *code,const unsigned *idp
  ,double3 dwxcorrg,double3 dwycorrg,double3 dwzcorrg,float massp2,float ftmassp1,bool ftp1
  ,double3 posdp1,double3 velp1,double pressp1
  ,double3 &acep1,unsigned *row,float &nearestBound,const float *divr,const float boundaryfs,const double *pressure,const double PistonPos,const double PistonVel,const double RightWall,tfloat3 gravity)
{
	const float volumep2=massp2/CTE.rhopzero; //Volume of particle j
  for(int p2=pini;p2<pfin;p2++){
    double drx,dry,drz;
		for(int count=0;count<=5;count++){
			bool interact=false;
			double3 velp2;
			double pressp2;
			double NeumannDist=0;
			KerGetParticlesDr(count,p2,posxy,posz,interact,posdp1,velrhop[p2],pressure[p2],drx,dry,drz,velp2,pressp2,PistonPos,PistonVel,NeumannDist,RightWall,gravity);
			if(interact){
				double rr2=drx*drx+dry*dry+drz*drz;
				if(rr2<=CTE.fourh2 && rr2>=ALMOSTZERO){
					//-Wendland kernel.
					double frx,fry,frz;
					if(tker==KERNEL_Quintic) KerGetKernelQuintic(rr2,drx,dry,drz,frx,fry,frz);
					//else if(tker==KERNEL_Wendland) KerGetKernelWendland(rr2,drx,dry,drz,frx,fry,frz);

					//===== Aceleration ===== 
					const double temp_x=frx*dwxcorrg.x+fry*dwycorrg.x+frz*dwzcorrg.x;
					//const double temp_y=frx*dwxcorrg.y+fry*dwycorrg.y+frz*dwzcorrg.y;
					const double temp_z=frx*dwxcorrg.z+fry*dwycorrg.z+frz*dwzcorrg.z;
					const double temp=volumep2*(pressp2-pressp1);

					acep1.x+=temp*temp_x;	/*acep1.y+=temp*temp_y;*/	acep1.z+=temp*temp_z;

				}
			}
		}
  }
}

//------------------------------------------------------------------------------
/// ES:
/// Realiza interaccion entre particulas. Fluid/Float-Fluid/Float or Fluid/Float-Bound
/// Incluye visco artificial/laminar y floatings normales/dem.
/// EN:
/// Interaction between particles. Fluid/Float-Fluid/Float or Fluid/Float-Bound.
/// Includes artificial/laminar viscosity and normal/DEM floating bodies.
//------------------------------------------------------------------------------
template<TpKernel tker,TpFtMode ftmode> __global__ void KerInteractionForcesFluid
  (TpInter tinter,unsigned npf,unsigned npb,int hdiv,uint4 nc,unsigned cellfluid,float viscob,float viscof
  ,const int2 *begincell,int3 cellzero,const unsigned *dcell
  ,const float *ftomassp,const double2 *posxy,const double *posz,const double3 *velrhop,const word *code,const unsigned *idp
  ,double3 *dwxcorrg,double3 *dwycorrg,double3 *dwzcorrg,double3 *ace,float *divr,unsigned *row,const unsigned matOrder,const float boundaryfs,const double *pressure,const double PistonPos,const double PistonVel,const double RightWall,tfloat3 gravity)
{
  unsigned p=blockIdx.y*gridDim.x*blockDim.x + blockIdx.x*blockDim.x + threadIdx.x; //-Nº de la partícula //-NI of the particle
  if(p<npf){
    unsigned p1=p+npb;      //-Nº de particula. //-NI of particle
		const unsigned Correctp1=p;
		float divrp1=0.0;
    double3 acep1=make_double3(0,0,0);
		double3 dwxp1=make_double3(0,0,0); double3 dwyp1=make_double3(0,0,0); double3 dwzp1=make_double3(0,0,0);
		unsigned rowCount=0; 
		float nearestBound=float(CTE.dp*CTE.dp);
		//-Obtiene datos de particula p1 en caso de existir floatings.
	//-Obtains data of particle p1 in case there are floating bodies.
    bool ftp1;       //-Indica si es floating. //-Indicates if it is floating.
    float ftmassp1;  //-Contiene masa de particula floating o 1.0f si es fluid. //-Contains floating particle mass or 1.0f if it is fluid.
    if(USE_FLOATING){
      const word cod=code[p1];
      ftp1=(CODE_GetType(cod)==CODE_TYPE_FLOATING);
      ftmassp1=(ftp1? ftomassp[CODE_GetTypeValue(cod)]: 1.f);
      //if(ftp1 && (tdelta==DELTA_Dynamic || tdelta==DELTA_DynamicExt))deltap1=FLT_MAX;
      //if(ftp1 && shift)shiftposp1.x=FLT_MAX;  //-Para floatings no se calcula shifting. //-Shifting is not calculated for floating bodies.
    }

    //-Obtiene datos basicos de particula p1.
	//-Obtains basic data of particle p1.
    double3 posdp1;
    double3 velp1;
    //const float pressp1=velrhop[p1].w;
		const double pressp1=pressure[p1];
    KerGetParticleData(p1,posxy,posz,velrhop,velp1,posdp1);
    //-Obtiene limites de interaccion
	//-Obtains interaction limits
    int cxini,cxfin,yini,yfin,zini,zfin;
    KerGetInteractionCells(dcell[p1],hdiv,nc,cellzero,cxini,cxfin,yini,yfin,zini,zfin);

    //-Interaccion con Fluidas.
	//-Interaction with fluids.
    for(int z=zini;z<zfin;z++){
      int zmod=(nc.w)*z+cellfluid; //-Le suma donde empiezan las celdas de fluido. //-The sum showing where fluid cells start
      for(int y=yini;y<yfin;y++){
        int ymod=zmod+nc.x*y;
        unsigned pini,pfin=0;
        for(int x=cxini;x<cxfin;x++){
          int2 cbeg=begincell[x+ymod];
          if(cbeg.y){
            if(!pfin)pini=cbeg.x;
            pfin=cbeg.y;
          }
        }
        if(pfin){
					if(tinter==1)KerInteractionForcesFluidVisc<tker,ftmode> (false,p1,pini,pfin,viscof,ftomassp,posxy,posz,velrhop,code,idp,CTE.massf,ftmassp1,ftp1,posdp1,velp1,pressp1,acep1,divrp1,dwxp1,dwyp1,dwzp1,rowCount,divr,boundaryfs,pressure,PistonPos,PistonVel,RightWall,gravity);
					else if(tinter==2) KerInteractionForcesFluidPresGrad<tker,ftmode> (false,p1,pini,pfin,viscof,ftomassp,posxy,posz,velrhop,code,idp,dwxcorrg[Correctp1],dwycorrg[Correctp1],dwzcorrg[Correctp1],CTE.massf,ftmassp1,ftp1,posdp1,velp1,pressp1,acep1,row,nearestBound,divr,boundaryfs,pressure,PistonPos,PistonVel,RightWall,gravity);
				}
			}
    }

    if(acep1.x||acep1.y||acep1.z||divrp1
			||dwxp1.x||dwxp1.y||dwxp1.z
			||dwyp1.x||dwyp1.y||dwyp1.z
			||dwzp1.x||dwzp1.y||dwzp1.z||rowCount){
      double3 r=ace[Correctp1]; 
      if(tinter==1){ 
				r.x=acep1.x; r.y=acep1.y; r.z=acep1.z;
				
				divr[p1]=divrp1;
				row[p1-matOrder]=rowCount;
				dwxcorrg[Correctp1].x=dwxp1.x; dwxcorrg[Correctp1].y=dwxp1.y; dwxcorrg[Correctp1].z=dwxp1.z; 
				dwycorrg[Correctp1].x=dwyp1.x; dwycorrg[Correctp1].y=dwyp1.y; dwycorrg[Correctp1].z=dwyp1.z; 
				dwzcorrg[Correctp1].x=dwzp1.x; dwzcorrg[Correctp1].y=dwzp1.y; dwzcorrg[Correctp1].z=dwzp1.z; 
			} 

	    if(tinter==2){ const float rho0=CTE.rhopzero; r.x+=(acep1.x/rho0); r.y+=(acep1.y/rho0); r.z+=(acep1.z/rho0);}
      ace[Correctp1]=r;
    }
  }
}

template<TpKernel tker,TpFtMode ftmode> __device__ void KerViscousSchwaigerCalc
  (bool boundp2,unsigned p1,const unsigned &pini,const unsigned &pfin,const float *ftomassp,const double2 *posxy,const double *posz
	,const double3 *velrhop,const word *code,const unsigned *idp,float massp2,float ftmassp1,bool ftp1,double3 posdp1,double3 velp1,double3 &sumfr
	,double3 &dud,double3 &dvd,double3 &dwd,double3 dwxp1,double3 dwyp1,double3 dwzp1,const float *divr,const float boundaryfs,double3 &taop1,const double *pressure,const double PistonPos,const double PistonVel,const double RightWall,tfloat3 gravity)
{
	const float volume=massp2/CTE.rhopzero; //Volume of particle j 

  for(int p2=pini;p2<pfin;p2++){
    double drx,dry,drz;
    for(int count=0;count<=5;count++){
			bool interact=false;
			double3 velp2;
			double pressp2;
			double NeumannDist=0;
			KerGetParticlesDr(count,p2,posxy,posz,interact,posdp1,velrhop[p2],pressure[p2],drx,dry,drz,velp2,pressp2,PistonPos,PistonVel,NeumannDist,RightWall,gravity);
			if(interact){
				double rr2=drx*drx+dry*dry+drz*drz;
				if(rr2<=CTE.fourh2 && rr2>=ALMOSTZERO){
					//-Wendland kernel.
					double frx,fry,frz;
					if(tker==KERNEL_Quintic) KerGetKernelQuintic(rr2,drx,dry,drz,frx,fry,frz);
					//else if(tker==KERNEL_Wendland) KerGetKernelWendland(rr2,drx,dry,drz,frx,fry,frz);
					const double rDivW=drx*frx/*+dry*fry*/+drz*frz;//R.Div(W)
					const double taotemp=volume*rDivW/(rr2+CTE.eta2);
					taop1.x+=taotemp*drx*drx; taop1.z+=taotemp*drz*drz;
					sumfr.x+=volume*frx; sumfr.y+=volume*fry; sumfr.z+=volume*frz;
			
					//const double3 velrhop2=velrhop[p2];
					const double dvx=velp1.x-velp2.x, dvy=velp1.y-velp2.y, dvz=velp1.z-velp2.z;

					double temp_x=frx*dwxp1.x+fry*dwyp1.x+frz*dwzp1.x; temp_x=temp_x*volume;
					double temp_y=frx*dwxp1.y+fry*dwyp1.y+frz*dwzp1.y; temp_y=temp_y*volume;
					double temp_z=frx*dwxp1.z+fry*dwyp1.z+frz*dwzp1.z; temp_z=temp_z*volume;
			
					dud.x+=dvx*temp_x; dud.y+=dvx*temp_y; dud.z+=dvx*temp_z;
					dvd.x+=dvy*temp_x; dvd.y+=dvy*temp_y; dvd.z+=dvy*temp_z;
					dwd.x+=dvz*temp_x; dwd.y+=dvz*temp_y; dwd.z+=dvz*temp_z;
				}
			}
		}
	}
}

template<TpKernel tker,TpFtMode ftmode> __global__ void KerViscousSchwaiger
  (unsigned npf,unsigned npb,int hdiv,uint4 nc,unsigned cellfluid,float viscob,float viscof,const int2 *begincell
	,int3 cellzero,const unsigned *dcell,const float *ftomassp,const double2 *posxy,const double *posz
	,const double3 *velrhop,const word *code,const unsigned *idp,double3 *dwxcorrg,double3 *dwycorrg,double3 *dwzcorrg
	,double3 *ace,double3 *SumFr,double *tao,const float *divr,const float boundaryfs,const float freesurface,const double *pressure,const double PistonPos,const double PistonVel,const double RightWall,tfloat3 gravity)
{
  unsigned p=blockIdx.y*gridDim.x*blockDim.x + blockIdx.x*blockDim.x + threadIdx.x; //-Nº de la partícula //-NI of the particle
  if(p<npf){
    unsigned p1=p+npb;      //-Nº de particula. //-NI of particle
		const unsigned Correctp1=p;
		double3 sumfr=make_double3(0,0,0);
    double3 dud=make_double3(0,0,0);
		double3 dvd=make_double3(0,0,0);
		double3 dwd=make_double3(0,0,0);
		double3 dwxp1=dwxcorrg[Correctp1];
		double3 dwyp1=dwycorrg[Correctp1];
		double3 dwzp1=dwzcorrg[Correctp1];
		double3 taop1=make_double3(0,0,0);
		//-Obtiene datos de particula p1 en caso de existir floatings.
	//-Obtains data of particle p1 in case there are floating bodies.
    bool ftp1;       //-Indica si es floating. //-Indicates if it is floating.
    float ftmassp1;  //-Contiene masa de particula floating o 1.0f si es fluid. //-Contains floating particle mass or 1.0f if it is fluid.
    if(USE_FLOATING){
      const word cod=code[p1];
      ftp1=(CODE_GetType(cod)==CODE_TYPE_FLOATING);
      ftmassp1=(ftp1? ftomassp[CODE_GetTypeValue(cod)]: 1.f);
      //if(ftp1 && (tdelta==DELTA_Dynamic || tdelta==DELTA_DynamicExt))deltap1=FLT_MAX;
      //if(ftp1 && shift)shiftposp1.x=FLT_MAX;  //-Para floatings no se calcula shifting. //-Shifting is not calculated for floating bodies.
    }

    //-Obtiene datos basicos de particula p1.
	//-Obtains basic data of particle p1.
    double3 posdp1;
    double3 velp1;
    KerGetParticleData(p1,posxy,posz,velrhop,velp1,posdp1);
    //-Obtiene limites de interaccion
	//-Obtains interaction limits
    int cxini,cxfin,yini,yfin,zini,zfin;
    KerGetInteractionCells(dcell[p1],hdiv,nc,cellzero,cxini,cxfin,yini,yfin,zini,zfin);

    //-Interaccion con Fluidas.
	//-Interaction with fluids.
    for(int z=zini;z<zfin;z++){
      int zmod=(nc.w)*z+cellfluid; //-Le suma donde empiezan las celdas de fluido. //-The sum showing where fluid cells start
      for(int y=yini;y<yfin;y++){
        int ymod=zmod+nc.x*y;
        unsigned pini,pfin=0;
        for(int x=cxini;x<cxfin;x++){
          int2 cbeg=begincell[x+ymod];
          if(cbeg.y){
            if(!pfin)pini=cbeg.x;
            pfin=cbeg.y;
          }
        }
        if(pfin) KerViscousSchwaigerCalc<tker,ftmode> (false,p1,pini,pfin,ftomassp,posxy,posz,velrhop,code,idp,CTE.massf,ftmassp1,ftp1,posdp1,velp1,sumfr,dud,dvd,dwd,dwxp1,dwyp1,dwzp1,divr,boundaryfs,taop1,pressure,PistonPos,PistonVel,RightWall,gravity);
			}
    }

		double mu2=2.0*viscof;
    double3 r=ace[Correctp1]; 
    r.x-=mu2*(dud.x*sumfr.x+dud.y*sumfr.y+dud.z*sumfr.z); 
		r.y-=mu2*(dvd.x*sumfr.x+dvd.y*sumfr.y+dvd.z*sumfr.z); 
		r.z-=mu2*(dwd.x*sumfr.x+dwd.y*sumfr.y+dwd.z*sumfr.z);
		taop1.x=1.0/(taop1.x+CTE.eta2); taop1.z=1.0/(taop1.z+CTE.eta2);
		double taoFinal=-0.5*(taop1.x+taop1.z);
    ace[Correctp1]=r;
		if(divr[p1]>freesurface){ ace[Correctp1].x=ace[Correctp1].x*taoFinal; ace[Correctp1].z=ace[Correctp1].z*taoFinal;}
		tao[Correctp1]=taoFinal;
		SumFr[Correctp1].x+=sumfr.x; SumFr[Correctp1].y+=sumfr.y; SumFr[Correctp1].z+=sumfr.z;
  }
}

//==============================================================================
/// Collects kernel information.
//==============================================================================
template<TpKernel tker,TpFtMode ftmode> void Interaction_ForcesT_KerInfo(StKerInfo *kerinfo)
{
	#if CUDART_VERSION >= 6050
  {
    typedef void (*fun_ptr)(TpInter,unsigned,unsigned,int,uint4,unsigned,float,float,const int2*,int3,const unsigned*,const float*,const double2*,const double*,const double3*,const word*,const unsigned*,double3*,double3*,double3*,double3*,float*,unsigned*,const unsigned,const float,const double*,const double,const double,const double,tfloat3);
    fun_ptr ptr=&KerInteractionForcesFluid<tker,ftmode>;
    int qblocksize=0,mingridsize=0;
    cudaOccupancyMaxPotentialBlockSize(&mingridsize,&qblocksize,(void*)ptr,0,0);
    struct cudaFuncAttributes attr;
    cudaFuncGetAttributes(&attr,(void*)ptr);
    kerinfo->forcesfluid_bs=qblocksize;
    kerinfo->forcesfluid_rg=attr.numRegs;
    kerinfo->forcesfluid_bsmax=attr.maxThreadsPerBlock;
    //printf(">> KerInteractionForcesFluid  blocksize:%u (%u)\n",qblocksize,0);
  }

  CheckErrorCuda("Error collecting kernel information.");
#endif
}

//==============================================================================
/// Interaccion para el calculo de fuerzas.
/// Interaction for the force computation.
//==============================================================================
template<TpKernel tker,TpFtMode ftmode,bool schwaiger> void Interaction_ForcesT
  (TpSlipCond tslipcond,TpCellMode cellmode,float viscob,float viscof,unsigned bsbound,unsigned bsfluid
  ,TpInter tinter,unsigned np,unsigned npb,unsigned npbok,tuint3 ncells,const int2 *begincell,tuint3 cellmin,const unsigned *dcell
  ,const double2 *posxy,const double *posz,double3 *velrhop,const word *code,const unsigned *idp,double3 *dwxcorrg,double3 *dwycorrg,double3 *dwzcorrg
  ,const float *ftomassp,double3 *ace,bool simulate2d,float *divr,const double3 *mirrorPos,const unsigned *mirrorCell,double4 *mls,unsigned *row
	,double3 *SumFr,double *tao,const float boundaryfs,const float freesurface,const double pistonposx,StKerInfo *kerinfo,JBlockSizeAuto *bsauto,const double *pressure,const double pistonvel,const double RightWall,const tfloat3 gravity)
{
	const unsigned npf=np-npb;
	if(kerinfo)Interaction_ForcesT_KerInfo<tker,ftmode>(kerinfo);
  //else if(bsauto)Interaction_ForcesT_BsAuto<psimple,tker,ftmode,lamsps,tdelta,shift>(cellmode,viscob,viscof,bsbound,bsfluid,np,npb,npbok,ncells,begincell,cellmin,dcell,posxy,posz,pospress,velrhop,code,idp,ftomassp,tau,gradvel,viscdt,ar,ace,delta,tshifting,shiftpos,shiftdetect,simulate2d,bsauto);
  else if(npf){
		//-Executes particle interactions.
		const int hdiv=(cellmode==CELLMODE_H? 2: 1);
		const uint4 nc=make_uint4(ncells.x,ncells.y,ncells.z,ncells.x*ncells.y);
		const unsigned cellfluid=nc.w*nc.z+1;
		const int3 cellzero=make_int3(cellmin.x,cellmin.y,cellmin.z);
	
		dim3 sgridb=GetGridSize(npbok,bsbound);
		dim3 sgridf=GetGridSize(npf,bsfluid);

		//-Interaccion Fluid-Fluid & Fluid-Bound
		//-Interaction Fluid-Fluid & Fluid-Bound
		const unsigned matOrder=npb;

		KerInteractionForcesFluid<tker,ftmode> <<<sgridf,bsfluid>>> (tinter,npf,npb,hdiv,nc,cellfluid,viscob,viscof,begincell,cellzero,dcell,ftomassp,posxy,posz,velrhop,code,idp,dwxcorrg,dwycorrg,dwzcorrg,ace,divr,row,matOrder,boundaryfs,pressure,pistonposx,pistonvel,RightWall,gravity);

		if(tinter==1){
			if(simulate2d) KerInverseKernelCor2D <<<sgridf,bsfluid>>> (npf,npb,dwxcorrg,dwzcorrg,code);
		}

		if(schwaiger&&tinter==1) KerViscousSchwaiger<tker,ftmode> <<<sgridf,bsfluid>>> (npf,npb,hdiv,nc,cellfluid,viscob,viscof,begincell,cellzero,dcell,ftomassp,posxy,posz,velrhop,code,idp,dwxcorrg,dwycorrg,dwzcorrg,ace,SumFr,tao,divr,boundaryfs,freesurface,pressure,pistonposx,pistonvel,RightWall,gravity);
	}
}
//==============================================================================
void Interaction_Forces(TpKernel tkernel,bool floating,bool usedem,TpSlipCond tslipcond,bool schwaiger,TpCellMode cellmode
  ,float viscob,float viscof,unsigned bsbound,unsigned bsfluid
  ,TpInter tinter,unsigned np,unsigned npb,unsigned npbok,tuint3 ncells
  ,const int2 *begincell,tuint3 cellmin,const unsigned *dcell
  ,const double2 *posxy,const double *posz,double3 *velrhop,const word *code,const unsigned *idp,double3 *dwxcorrg,double3 *dwycorrg,double3 *dwzcorrg
  ,const float *ftomassp,double3 *ace,bool simulate2d,float *divr,const double3 *mirrorPos,const unsigned *mirrorCell
	,double4 *mls,unsigned *row,double3 *SumFr,double *tao,const float boundaryfs,const float freesurface,const double pistonposx,StKerInfo *kerinfo,JBlockSizeAuto *bsauto,const double *pressure,const double pistonvel,const double RightWall,tfloat3 gravity)
{
	if(tkernel==KERNEL_Quintic){    const TpKernel tker=KERNEL_Quintic;
		if(!schwaiger){
			if(!floating)   Interaction_ForcesT<tker,FTMODE_None,false> (tslipcond,cellmode,viscob,viscof,bsbound,bsfluid,tinter,np,npb,npbok,ncells,begincell,cellmin,dcell,posxy,posz,velrhop,code,idp,dwxcorrg,dwycorrg,dwzcorrg,ftomassp,ace,simulate2d,divr,mirrorPos,mirrorCell,mls,row,NULL,NULL,boundaryfs,freesurface,pistonposx,kerinfo,bsauto,pressure,pistonvel,RightWall,gravity);
			else if(!usedem)Interaction_ForcesT<tker,FTMODE_Sph,false>  (tslipcond,cellmode,viscob,viscof,bsbound,bsfluid,tinter,np,npb,npbok,ncells,begincell,cellmin,dcell,posxy,posz,velrhop,code,idp,dwxcorrg,dwycorrg,dwzcorrg,ftomassp,ace,simulate2d,divr,mirrorPos,mirrorCell,mls,row,NULL,NULL,boundaryfs,freesurface,pistonposx,kerinfo,bsauto,pressure,pistonvel,RightWall,gravity);
			else            Interaction_ForcesT<tker,FTMODE_Dem,false>  (tslipcond,cellmode,viscob,viscof,bsbound,bsfluid,tinter,np,npb,npbok,ncells,begincell,cellmin,dcell,posxy,posz,velrhop,code,idp,dwxcorrg,dwycorrg,dwzcorrg,ftomassp,ace,simulate2d,divr,mirrorPos,mirrorCell,mls,row,NULL,NULL,boundaryfs,freesurface,pistonposx,kerinfo,bsauto,pressure,pistonvel,RightWall,gravity);
		}else{
			if(!floating)   Interaction_ForcesT<tker,FTMODE_None,true> (tslipcond,cellmode,viscob,viscof,bsbound,bsfluid,tinter,np,npb,npbok,ncells,begincell,cellmin,dcell,posxy,posz,velrhop,code,idp,dwxcorrg,dwycorrg,dwzcorrg,ftomassp,ace,simulate2d,divr,mirrorPos,mirrorCell,mls,row,SumFr,tao,boundaryfs,freesurface,pistonposx,kerinfo,bsauto,pressure,pistonvel,RightWall,gravity);
			else if(!usedem)Interaction_ForcesT<tker,FTMODE_Sph,true>  (tslipcond,cellmode,viscob,viscof,bsbound,bsfluid,tinter,np,npb,npbok,ncells,begincell,cellmin,dcell,posxy,posz,velrhop,code,idp,dwxcorrg,dwycorrg,dwzcorrg,ftomassp,ace,simulate2d,divr,mirrorPos,mirrorCell,mls,row,SumFr,tao,boundaryfs,freesurface,pistonposx,kerinfo,bsauto,pressure,pistonvel,RightWall,gravity);
			else            Interaction_ForcesT<tker,FTMODE_Dem,true>  (tslipcond,cellmode,viscob,viscof,bsbound,bsfluid,tinter,np,npb,npbok,ncells,begincell,cellmin,dcell,posxy,posz,velrhop,code,idp,dwxcorrg,dwycorrg,dwzcorrg,ftomassp,ace,simulate2d,divr,mirrorPos,mirrorCell,mls,row,SumFr,tao,boundaryfs,freesurface,pistonposx,kerinfo,bsauto,pressure,pistonvel,RightWall,gravity);	
		}
	}
	else if(tkernel==KERNEL_Wendland){    const TpKernel tker=KERNEL_Wendland;
		if(!schwaiger){
			if(!floating)   Interaction_ForcesT<tker,FTMODE_None,false> (tslipcond,cellmode,viscob,viscof,bsbound,bsfluid,tinter,np,npb,npbok,ncells,begincell,cellmin,dcell,posxy,posz,velrhop,code,idp,dwxcorrg,dwycorrg,dwzcorrg,ftomassp,ace,simulate2d,divr,mirrorPos,mirrorCell,mls,row,NULL,NULL,boundaryfs,freesurface,pistonposx,kerinfo,bsauto,pressure,pistonvel,RightWall,gravity);
			else if(!usedem)Interaction_ForcesT<tker,FTMODE_Sph,false>  (tslipcond,cellmode,viscob,viscof,bsbound,bsfluid,tinter,np,npb,npbok,ncells,begincell,cellmin,dcell,posxy,posz,velrhop,code,idp,dwxcorrg,dwycorrg,dwzcorrg,ftomassp,ace,simulate2d,divr,mirrorPos,mirrorCell,mls,row,NULL,NULL,boundaryfs,freesurface,pistonposx,kerinfo,bsauto,pressure,pistonvel,RightWall,gravity);
			else            Interaction_ForcesT<tker,FTMODE_Dem,false>  (tslipcond,cellmode,viscob,viscof,bsbound,bsfluid,tinter,np,npb,npbok,ncells,begincell,cellmin,dcell,posxy,posz,velrhop,code,idp,dwxcorrg,dwycorrg,dwzcorrg,ftomassp,ace,simulate2d,divr,mirrorPos,mirrorCell,mls,row,NULL,NULL,boundaryfs,freesurface,pistonposx,kerinfo,bsauto,pressure,pistonvel,RightWall,gravity);
		}else{
			if(!floating)   Interaction_ForcesT<tker,FTMODE_None,true> (tslipcond,cellmode,viscob,viscof,bsbound,bsfluid,tinter,np,npb,npbok,ncells,begincell,cellmin,dcell,posxy,posz,velrhop,code,idp,dwxcorrg,dwycorrg,dwzcorrg,ftomassp,ace,simulate2d,divr,mirrorPos,mirrorCell,mls,row,SumFr,tao,boundaryfs,freesurface,pistonposx,kerinfo,bsauto,pressure,pistonvel,RightWall,gravity);
			else if(!usedem)Interaction_ForcesT<tker,FTMODE_Sph,true>  (tslipcond,cellmode,viscob,viscof,bsbound,bsfluid,tinter,np,npb,npbok,ncells,begincell,cellmin,dcell,posxy,posz,velrhop,code,idp,dwxcorrg,dwycorrg,dwzcorrg,ftomassp,ace,simulate2d,divr,mirrorPos,mirrorCell,mls,row,SumFr,tao,boundaryfs,freesurface,pistonposx,kerinfo,bsauto,pressure,pistonvel,RightWall,gravity);
			else            Interaction_ForcesT<tker,FTMODE_Dem,true>  (tslipcond,cellmode,viscob,viscof,bsbound,bsfluid,tinter,np,npb,npbok,ncells,begincell,cellmin,dcell,posxy,posz,velrhop,code,idp,dwxcorrg,dwycorrg,dwzcorrg,ftomassp,ace,simulate2d,divr,mirrorPos,mirrorCell,mls,row,SumFr,tao,boundaryfs,freesurface,pistonposx,kerinfo,bsauto,pressure,pistonvel,RightWall,gravity);
		}
	}
}

/*//##############################################################################
//# Kernels para interaccion DEM.
//# Kernels for DEM interaction
//##########################################.####################################
//------------------------------------------------------------------------------
/// Realiza la interaccion DEM de una particula con un conjunto de ellas. (Float-Float/Bound)
/// DEM interaction of a particle with a set of particles (Float-Float/Bound).
//------------------------------------------------------------------------------
template<bool psimple> __device__ void KerInteractionForcesDemBox 
  (bool boundp2,const unsigned &pini,const unsigned &pfin
  ,const float4 *demdata,float dtforce
  ,const double2 *posxy,const double *posz,const float4 *pospress,const float4 *velrhop,const word *code,const unsigned *idp
  ,double3 posdp1,float3 posp1,float3 velp1,word tavp1,float masstotp1,float taup1,float kfricp1,float restitup1
  ,float3 &acep1,float &demdtp1)
{
  for(int p2=pini;p2<pfin;p2++){
    const word codep2=code[p2];
    if(CODE_GetType(codep2)!=CODE_TYPE_FLUID && tavp1!=CODE_GetTypeAndValue(codep2)){
      float drx,dry,drz;
      KerGetParticlesDr<psimple> (p2,posxy,posz,pospress,posdp1,posp1,drx,dry,drz);
      const float rr2=drx*drx+dry*dry+drz*drz;
      const float rad=sqrt(rr2);
      //-Calcula valor maximo de demdt.
	  //-Computes maximum value of demdt.
      float4 demdatap2=demdata[CODE_GetTypeAndValue(codep2)];
      const float nu_mass=(boundp2? masstotp1/2: masstotp1*demdatap2.x/(masstotp1+demdatap2.x)); //-Con boundary toma la propia masa del floating 1. //-With boundary takes the actual mass of floating 1.
      const float kn=4/(3*(taup1+demdatap2.y))*sqrt(CTE.dp/4);  //generalized rigidity - Lemieux 2008
      const float demvisc=float(PI)/(sqrt( kn/nu_mass ))*40.f;
      if(demdtp1<demvisc)demdtp1=demvisc;
      const float over_lap=1.0f*CTE.dp-rad; //-(ri+rj)-|dij|
      if(over_lap>0.0f){ //-Contact
        const float dvx=velp1.x-velrhop[p2].x, dvy=velp1.y-velrhop[p2].y, dvz=velp1.z-velrhop[p2].z; //vji
        const float nx=drx/rad, ny=dry/rad, nz=drz/rad; //normal_ji             
        const float vn=dvx*nx+dvy*ny+dvz*nz; //vji.nji    
        //normal                    
        const float eij=(restitup1+demdatap2.w)/2;
        const float gn=-(2.0f*log(eij)*sqrt(nu_mass*kn))/(sqrt(float(PI)+log(eij)*log(eij))); //generalized damping - Cummins 2010
        //const float gn=0.08f*sqrt(nu_mass*sqrt(CTE.dp/2)/((taup1+demdatap2.y)/2)); //generalized damping - Lemieux 2008
        float rep=kn*pow(over_lap,1.5f);
        float fn=rep-gn*pow(over_lap,0.25f)*vn;                   
        acep1.x+=(fn*nx); acep1.y+=(fn*ny); acep1.z+=(fn*nz); //-Force is applied in the normal between the particles
        //tangencial
        float dvxt=dvx-vn*nx, dvyt=dvy-vn*ny, dvzt=dvz-vn*nz; //Vji_t
        float vt=sqrt(dvxt*dvxt + dvyt*dvyt + dvzt*dvzt);
        float tx=(vt!=0? dvxt/vt: 0), ty=(vt!=0? dvyt/vt: 0), tz=(vt!=0? dvzt/vt: 0); //Tang vel unit vector
        float ft_elast=2*(kn*dtforce-gn)*vt/7;   //Elastic frictional string -->  ft_elast=2*(kn*fdispl-gn*vt)/7; fdispl=dtforce*vt;
        const float kfric_ij=(kfricp1+demdatap2.z)/2;
        float ft=kfric_ij*fn*tanh(8*vt);  //Coulomb
        ft=(ft<ft_elast? ft: ft_elast);   //not above yield criteria, visco-elastic model
        acep1.x+=(ft*tx); acep1.y+=(ft*ty); acep1.z+=(ft*tz);
      }
    }
  }
}
//------------------------------------------------------------------------------
/// ES:
/// Realiza interaccion entre particulas. Fluid/Float-Fluid/Float or Fluid/Float-Bound
/// Incluye visco artificial/laminar y floatings normales/dem.
/// - EN:
/// Interaction between particles. Fluid/Float-Fluid/Float or Fluid/Float-Bound.
/// Includes artificial/laminar viscosity and normal/DEM floating bodies.
//------------------------------------------------------------------------------
template<bool psimple> __global__ void KerInteractionForcesDem
  (unsigned nfloat,int hdiv,uint4 nc,unsigned cellfluid
  ,const int2 *begincell,int3 cellzero,const unsigned *dcell
  ,const unsigned *ftridp,const float4 *demdata,float dtforce
  ,const double2 *posxy,const double *posz,const float4 *pospress,const float4 *velrhop,const word *code,const unsigned *idp
  ,float *viscdt,float3 *ace)
{
  unsigned p=blockIdx.y*gridDim.x*blockDim.x + blockIdx.x*blockDim.x + threadIdx.x; //-Nº de la partícula //-NI of the particle
  if(p<nfloat){
    const unsigned p1=ftridp[p];      //-Nº de particula. //-NI of the particle
    if(p1!=UINT_MAX){
      float demdtp1=0;
      float3 acep1=make_float3(0,0,0);
      //-Obtiene datos basicos de particula p1.
	  //-Obtains basic data of particle p1.
      double3 posdp1;
      float3 posp1,velp1;
      KerGetParticleData<psimple>(p1,posxy,posz,pospress,velrhop,velp1,posdp1,posp1);
      const word tavp1=CODE_GetTypeAndValue(code[p1]);
      float4 rdata=demdata[tavp1];
      const float masstotp1=rdata.x;
      const float taup1=rdata.y;
      const float kfricp1=rdata.z;
      const float restitup1=rdata.w;
      //-Obtiene limites de interaccion
	  //-Obtains interaction limits
      int cxini,cxfin,yini,yfin,zini,zfin;
      KerGetInteractionCells(dcell[p1],hdiv,nc,cellzero,cxini,cxfin,yini,yfin,zini,zfin);
      //-Interaccion con contorno.
	  //-Interaction with boundaries.
      for(int z=zini;z<zfin;z++){
        int zmod=(nc.w)*z;
        for(int y=yini;y<yfin;y++){
          int ymod=zmod+nc.x*y;
          unsigned pini,pfin=0;
          for(int x=cxini;x<cxfin;x++){
            int2 cbeg=begincell[x+ymod];
            if(cbeg.y){
              if(!pfin)pini=cbeg.x;
              pfin=cbeg.y;
            }
          }
          if(pfin)KerInteractionForcesDemBox<psimple> (true ,pini,pfin,demdata,dtforce,posxy,posz,pospress,velrhop,code,idp,posdp1,posp1,velp1,tavp1,masstotp1,taup1,kfricp1,restitup1,acep1,demdtp1);
        }
      }
      //-Interaccion con Fluidas.
	  //-Interaction with fluids.
      for(int z=zini;z<zfin;z++){
        int zmod=(nc.w)*z+cellfluid; //-Le suma donde empiezan las celdas de fluido. //-The sum showing where fluid cells start
        for(int y=yini;y<yfin;y++){
          int ymod=zmod+nc.x*y;
          unsigned pini,pfin=0;
          for(int x=cxini;x<cxfin;x++){
            int2 cbeg=begincell[x+ymod];
            if(cbeg.y){
              if(!pfin)pini=cbeg.x;
              pfin=cbeg.y;
            }
          }
          if(pfin)KerInteractionForcesDemBox<psimple> (false,pini,pfin,demdata,dtforce,posxy,posz,pospress,velrhop,code,idp,posdp1,posp1,velp1,tavp1,masstotp1,taup1,kfricp1,restitup1,acep1,demdtp1);
        }
      }
      //-Almacena resultados.
	  //-Stores results.
      if(acep1.x || acep1.y || acep1.z || demdtp1){
        float3 r=ace[p1]; r.x+=acep1.x; r.y+=acep1.y; r.z+=acep1.z; ace[p1]=r;
        if(viscdt[p1]<demdtp1)viscdt[p1]=demdtp1;
      }
    }
  }
}
//==============================================================================
/// Interaccion para el calculo de fuerzas.
/// Interaction for the force computation.
//==============================================================================
template<bool psimple> void Interaction_ForcesDemT
  (TpCellMode cellmode,unsigned bsize
  ,unsigned nfloat,tuint3 ncells,const int2 *begincell,tuint3 cellmin,const unsigned *dcell
  ,const unsigned *ftridp,const float4 *demdata,float dtforce
  ,const double2 *posxy,const double *posz,const float4 *pospress,const float4 *velrhop
  ,const word *code,const unsigned *idp,float *viscdt,float3 *ace)
{
  const int hdiv=(cellmode==CELLMODE_H? 2: 1);
  const uint4 nc=make_uint4(ncells.x,ncells.y,ncells.z,ncells.x*ncells.y);
  const unsigned cellfluid=nc.w*nc.z+1;
  const int3 cellzero=make_int3(cellmin.x,cellmin.y,cellmin.z);
  //-Interaccion Fluid-Fluid & Fluid-Bound
  //-Interaction Fluid-Fluid & Fluid-Bound
  if(nfloat){
    dim3 sgrid=GetGridSize(nfloat,bsize);
    KerInteractionForcesDem<psimple> <<<sgrid,bsize>>> (nfloat,hdiv,nc,cellfluid,begincell,cellzero,dcell,ftridp,demdata,dtforce,posxy,posz,pospress,velrhop,code,idp,viscdt,ace);
  }
}
//==============================================================================
void Interaction_ForcesDem(bool psimple,TpCellMode cellmode,unsigned bsize
  ,unsigned nfloat,tuint3 ncells,const int2 *begincell,tuint3 cellmin,const unsigned *dcell
  ,const unsigned *ftridp,const float4 *demdata,float dtforce
  ,const double2 *posxy,const double *posz,const float4 *pospress,const float4 *velrhop
  ,const word *code,const unsigned *idp,float *viscdt,float3 *ace)
{
  if(psimple)Interaction_ForcesDemT<true>  (cellmode,bsize,nfloat,ncells,begincell,cellmin,dcell,ftridp,demdata,dtforce,posxy,posz,pospress,velrhop,code,idp,viscdt,ace);
  else       Interaction_ForcesDemT<false> (cellmode,bsize,nfloat,ncells,begincell,cellmin,dcell,ftridp,demdata,dtforce,posxy,posz,pospress,velrhop,code,idp,viscdt,ace);
}
*/

//##############################################################################
//# Kernels para Shifting.
//# Shifting kernels.
//##############################################################################
//------------------------------------------------------------------------------
/// Calcula Shifting final para posicion de particulas.
/// Computes final shifting for the particle position.
//------------------------------------------------------------------------------
__global__ void KerRunShifting(const bool simulate2d,unsigned n,unsigned pini,double dt
  ,float shiftcoef,float freesurface,double3 *velrhop,const float *divr,double3 *shiftpos
	,const float ShiftOffset,const double alphashift,const bool maxShift,double3 *sumtensile,const double beta0,const double beta1)
{
  unsigned p=blockIdx.y*gridDim.x*blockDim.x + blockIdx.x*blockDim.x + threadIdx.x; //-Nº de la partícula //-NI of the particle.
  if(p<n){
    const unsigned p1=p+pini;
		const unsigned Correctp1=p;
    double3 rshiftpos=shiftpos[Correctp1];
    float divrp1=divr[p1];
		double h=double(CTE.h);
		double dp=double(CTE.dp);
    //double umagn=-double(shiftcoef)*double(CTE.h)*dt*sqrt(velrhop[p1].x*velrhop[p1].x+velrhop[p1].y*velrhop[p1].y+velrhop[p1].z*velrhop[p1].z);
		double umagn=-double(shiftcoef)*h*h;

		double3 norm=make_double3(-rshiftpos.x,-rshiftpos.y,-rshiftpos.z);

		if(simulate2d) norm.y=0;
	  double3 tang=make_double3(0,0,0);
	  double3 bitang=make_double3(0,0,0);
		rshiftpos.x+=sumtensile[Correctp1].x; rshiftpos.y+=sumtensile[Correctp1].y; rshiftpos.z+=sumtensile[Correctp1].z;
		if(simulate2d)  rshiftpos.y=0;

	  //-tangent and bitangent calculation
	  tang.x=norm.z+norm.y;		
	  if(!simulate2d)tang.y=-(norm.x+norm.z);	
	  tang.z=-norm.x+norm.y;
		if(!simulate2d){
			bitang.x=tang.y*norm.z-norm.y*tang.z;
			bitang.y=norm.x*tang.z-tang.x*norm.z;
			bitang.z=tang.x*norm.y-norm.x*tang.y;
		}

	  //-unit normal vector
	  double temp=norm.x*norm.x+norm.y*norm.y+norm.z*norm.z;
	  if(temp){
      temp=sqrt(temp);
	    norm.x=norm.x/temp; norm.y=norm.y/temp; norm.z=norm.z/temp;
    }
    else {norm.x=0.f; norm.y=0.f; norm.z=0.f;}

	  //-unit tangent vector
	  temp=tang.x*tang.x+tang.y*tang.y+tang.z*tang.z;
	  if(temp){
      temp=sqrt(temp);
	    tang.x=tang.x/temp; tang.y=tang.y/temp; tang.z=tang.z/temp;
    }
    else {tang.x=0.f; tang.y=0.f; tang.z=0.f;}

	  //-unit bitangent vector
		if(!simulate2d){
			temp=bitang.x*bitang.x+bitang.y*bitang.y+bitang.z*bitang.z;
			if(temp){
				temp=sqrt(temp);
				bitang.x=bitang.x/temp; bitang.y=bitang.y/temp; bitang.z=bitang.z/temp;
			}
			else {bitang.x=0.f; bitang.y=0.f; bitang.z=0.f;}
		}

	  //-gradient calculation
	  double dcds=tang.x*rshiftpos.x+tang.z*rshiftpos.z+tang.y*rshiftpos.y;
	  double dcdn=norm.x*rshiftpos.x+norm.z*rshiftpos.z+norm.y*rshiftpos.y;
	  double dcdb=bitang.x*rshiftpos.x+bitang.z*rshiftpos.z+bitang.y*rshiftpos.y;

    if(divrp1<freesurface){
			dcdn-=beta0;
			double factorNormShift=0;//alphashift;
      rshiftpos.x=dcds*tang.x+dcdb*bitang.x+(dcdn*norm.x)*factorNormShift;
      if(!simulate2d) rshiftpos.y=dcds*tang.y+dcdb*bitang.y+(dcdn*norm.y)*factorNormShift;
      rshiftpos.z=dcds*tang.z+dcdb*bitang.z+(dcdn*norm.z)*factorNormShift;
    }
    else if(divrp1<=freesurface+ShiftOffset){ 
			dcdn-=beta1;
			double factorNormShift=alphashift;
			rshiftpos.x=dcds*tang.x+dcdb*bitang.x+dcdn*norm.x*factorNormShift;
      if(!simulate2d) rshiftpos.y=dcds*tang.y+dcdb*bitang.y+(dcdn*norm.y)*factorNormShift;
      rshiftpos.z=dcds*tang.z+dcdb*bitang.z+dcdn*norm.z*factorNormShift;
    }

    rshiftpos.x=rshiftpos.x*umagn;
    if(!simulate2d) rshiftpos.y=rshiftpos.y*umagn;
    rshiftpos.z=rshiftpos.z*umagn;

    //Max Shifting
		if(maxShift){
      double absShift=sqrt(rshiftpos.x*rshiftpos.x+rshiftpos.y*rshiftpos.y+rshiftpos.z*rshiftpos.z);
			double maxDist=0.1*dp;
      if(abs(rshiftpos.x)>maxDist) rshiftpos.x=maxDist*rshiftpos.x/absShift;
      if(abs(rshiftpos.y)>maxDist) rshiftpos.y=maxDist*rshiftpos.y/absShift;
      if(abs(rshiftpos.z)>maxDist) rshiftpos.z=maxDist*rshiftpos.z/absShift;
		}

    shiftpos[Correctp1]=rshiftpos;
  }
}

//==============================================================================
/// Calcula Shifting final para posicion de particulas.
/// Computes final shifting for the particle position.
//==============================================================================
void RunShifting(const bool simulate2d,unsigned np,unsigned npb,double dt
  ,double shiftcoef,float freesurface,double3 *velrhop,const float *divr,double3 *shiftpos
	,bool maxShift,double3 *sumtensile,const float shiftoffset,const double alphashift,const double betashift0,const double betashift1){
  const unsigned npf=np-npb;
  if(npf){
    dim3 sgrid=GetGridSize(npf,SPHBSIZE);
    KerRunShifting <<<sgrid,SPHBSIZE>>> (simulate2d,npf,npb,dt,shiftcoef,freesurface,velrhop,divr,shiftpos,shiftoffset,alphashift,maxShift,sumtensile,betashift0,betashift1);
  }
}

//------------------------------------------------------------------------------
/// Calcula los nuevos valores de Pos, Vel y Rhop (usando para Symplectic-Predictor)
/// Computes new values for Pos, Check, Vel and Ros (used with Symplectic-Predictor).
//------------------------------------------------------------------------------
template<bool floating> __global__ void KerComputeStepSymplecticPre
  (unsigned npf,unsigned npb,const double3 *ace,double dtm,word *code,double3 *velrhop)
{
  unsigned p=blockIdx.y*gridDim.x*blockDim.x + blockIdx.x*blockDim.x + threadIdx.x; //-Nº de la partícula //-NI of the particle.
  if(p<npf){
		const unsigned p1=p+npb;
		const unsigned Correctp1=p;
    double3 rvelrhop=velrhop[p1];

    const double3 race=ace[Correctp1];
    rvelrhop.x+=race.x*dtm;
    rvelrhop.y+=race.y*dtm;
    rvelrhop.z+=race.z*dtm;

    velrhop[p1]=rvelrhop;
  }
}

//==============================================================================
/// Actualizacion de particulas usando Symplectic-Predictor.
/// Updates particles using Symplectic-Predictor.
//==============================================================================   
void ComputeStepSymplecticPre(const unsigned bsfluid,bool floating,unsigned np,unsigned npb,const double3 *ace,double dtm
  ,word *code,double3 *velrhop)
{
  if(np){
		const unsigned npf=np-npb;
    dim3 sgrid=GetGridSize(npf,bsfluid);
    if(floating)KerComputeStepSymplecticPre<true>  <<<sgrid,bsfluid>>> (npf,npb,ace,dtm,code,velrhop);
    else        KerComputeStepSymplecticPre<false> <<<sgrid,bsfluid>>> (npf,npb,ace,dtm,code,velrhop);
  }
}

//------------------------------------------------------------------------------
/// ES:
/// Calcula los nuevos valores de Pos, Vel y Rhop (usandopara Symplectic-Corrector)
/// Pone vel de contorno a cero.
/// - EN:
/// Computes new values for Pos, Check, Vel and Ros (using Symplectic-Corrector).
/// The value of Vel always set to be reset.
//------------------------------------------------------------------------------
__device__ void KerDampingZone(const double xp1,double3 &rvelrhop,const double dampingpoint,const double dampinglength)
{
	if(xp1>dampingpoint){
		double fx=1.0-exp(-2.0*(dampinglength-(xp1-dampingpoint)));
		rvelrhop.x=rvelrhop.x*fx;
		rvelrhop.y=rvelrhop.y*fx;
		rvelrhop.z=rvelrhop.z*fx;
	}
}
__device__ void KerCorrectVelocity(const unsigned p1,const unsigned nearestBound,const double2 *posxy,const double *posz,double3 &rvelrhop,double3 *velrhop,const unsigned *idpg,const double3 *mirrorPos)
{
	double3 NormDir=make_double3(0,0,0), NormVelWall=make_double3(0,0,0), NormVelp1=make_double3(0,0,0);
	const unsigned nearestID=idpg[nearestBound];
	const double3 velwall=make_double3(velrhop[nearestBound].x,velrhop[nearestBound].y,velrhop[nearestBound].z);
	const double3 velp1=make_double3(rvelrhop.x,rvelrhop.y,rvelrhop.z);
	NormDir.x=mirrorPos[nearestID].x-posxy[nearestBound].x;
	NormDir.y=mirrorPos[nearestID].y-posxy[nearestBound].y;
	NormDir.z=mirrorPos[nearestID].z-posz[nearestBound];
	double MagNorm=NormDir.x*NormDir.x+NormDir.y*NormDir.y+NormDir.z*NormDir.z;
	if(MagNorm){MagNorm=sqrt(MagNorm); NormDir.x=NormDir.x/MagNorm; NormDir.y=NormDir.y/MagNorm; NormDir.z=NormDir.z/MagNorm;}
	double NormProdVelWall=velwall.x*NormDir.x+velwall.y*NormDir.y+velwall.z*NormDir.z;
	double NormProdVelp1=velp1.x*NormDir.x+velp1.y*NormDir.y+velp1.z*NormDir.z;

	NormVelWall.x=NormDir.x*NormProdVelWall; NormVelp1.x=NormDir.x*NormProdVelp1;
	NormVelWall.y=NormDir.y*NormProdVelWall; NormVelp1.y=NormDir.y*NormProdVelp1;
	NormVelWall.z=NormDir.z*NormProdVelWall; NormVelp1.z=NormDir.z*NormProdVelp1;

	double dux=NormVelp1.x-NormVelWall.x;
	double duy=NormVelp1.y-NormVelWall.y;
	double duz=NormVelp1.z-NormVelWall.z;

	double VelNorm=dux*NormDir.x+duy*NormDir.y+duz*NormDir.z;
	if(VelNorm<0){
		rvelrhop.x-=VelNorm*NormDir.x;
		rvelrhop.y-=VelNorm*NormDir.y;
		rvelrhop.z-=VelNorm*NormDir.z;
	}
}

template<bool floating> __global__ void KerComputeStepSymplecticCor
  (unsigned npf,unsigned npb
  ,const double3 *velrhoppre,const double3 *ace,double dtm,double dt,float rhopoutmin,float rhopoutmax
  ,word *code,double2 *movxy,double *movz,double3 *velrhop,tfloat3 gravity,const unsigned *row,const double2 *posxy,const double *posz,const unsigned *idp,const double3 *mirrorPos
	,const bool wavegen,const double dampingpoint,const double dampinglength)
{
  unsigned p=blockIdx.y*gridDim.x*blockDim.x + blockIdx.x*blockDim.x + threadIdx.x; //-Nº de la partícula //-NI of the particle.
  if(p<npf){
		const unsigned p1=p+npb;
		const unsigned Correctp1=p;
    double3 rvelrhop=velrhop[p1];
	  double3 rvelp=velrhoppre[p1];
    //-Actualiza velocidad.
		//-Updates velocity.

    double3 race=ace[Correctp1];
    rvelrhop.x-=(race.x-gravity.x)*dt;
    rvelrhop.y-=(race.y-gravity.y)*dt;
    rvelrhop.z-=(race.z-gravity.z)*dt;

		//if(row[p1]!=npb) KerCorrectVelocity(p1,row[p1],posxy,posz,rvelrhop,velrhop,idp,mirrorPos);
		if(wavegen){
			const double xp1=posxy[p1].x;
			KerDampingZone(xp1,rvelrhop,dampingpoint,dampinglength);
		}
		//-Computes and stores position displacement.
    double dx=(rvelp.x+rvelrhop.x)*dtm;
    double dy=(rvelp.y+rvelrhop.y)*dtm;
    double dz=(rvelp.z+rvelrhop.z)*dtm;
			
    movxy[p1]=make_double2(dx,dy);
    movz[p1]=dz;
		velrhop[p1]=rvelrhop;
  }
}

//==============================================================================
// Actualizacion de particulas usando Symplectic-Corrector.
/// Updates particles using Symplectic-Corrector.
//==============================================================================   
void ComputeStepSymplecticCor(const unsigned bsfluid,bool floating,unsigned np,unsigned npb
  ,const double3 *velrhoppre,const double3 *ace,double dtm,double dt,float rhopoutmin,float rhopoutmax
  ,word *code,double2 *movxy,double *movz,double3 *velrhop,tfloat3 gravity,const unsigned *row,const double2 *posxy,const double *posz,const unsigned *idp,const double3 *mirrorPos
	,const bool wavegen,const double dampingpoint,const double dampinglength)
{
  if(np){
		const unsigned npf=np-npb;
    dim3 sgrid=GetGridSize(npf,bsfluid);
    if(floating)KerComputeStepSymplecticCor<true>  <<<sgrid,bsfluid>>> (npf,npb,velrhoppre,ace,dtm,dt,rhopoutmin,rhopoutmax,code,movxy,movz,velrhop,gravity,row,posxy,posz,idp,mirrorPos,wavegen,dampingpoint,dampinglength);
    else        KerComputeStepSymplecticCor<false> <<<sgrid,bsfluid>>> (npf,npb,velrhoppre,ace,dtm,dt,rhopoutmin,rhopoutmax,code,movxy,movz,velrhop,gravity,row,posxy,posz,idp,mirrorPos,wavegen,dampingpoint,dampinglength);
  }
}


//##############################################################################
//# Kernels para ComputeStep (position)
//# Kernels for ComputeStep (position)
//##############################################################################
//------------------------------------------------------------------------------
/// ES:
/// Actualiza pos, dcell y code a partir del desplazamiento indicado.
/// Code puede ser CODE_OUTRHOP pq en ComputeStepVerlet/Symplectic se evalua esto 
/// y se ejecuta antes que ComputeStepPos.
/// Comprueba los limites en funcion de maprealposmin y maprealsize esto es valido
/// para single-gpu pq domrealpos y maprealpos son iguales. Para multi-gpu seria 
/// necesario marcar las particulas q salgan del dominio sin salir del mapa.
/// - EN:
/// Updates pos, dcell and code from the indicated displacement.
/// The code may be CODE_OUTRHOP because in ComputeStepVerlet / Symplectic this is evaluated
/// and is executed before ComputeStepPos.
/// Checks limits depending on maprealposmin and maprealsize, this is valid 
/// for single-GPU because maprealpos and domrealpos are equal. For multi-gpu it is
/// important to mark particles that leave the domain without leaving the map.
//------------------------------------------------------------------------------
template<bool periactive> __device__ void KerUpdatePos
  (double2 rxy,double rz,double movx,double movy,double movz
  ,bool outrhop,unsigned p,double2 *posxy,double *posz,unsigned *dcell,word *code)
{
  //-Comprueba validez del desplazamiento.
  //-Checks validity of displacement.
  bool outmove=(fmaxf(fabsf(float(movx)),fmaxf(fabsf(float(movy)),fabsf(float(movz))))>CTE.movlimit);
  //-Aplica desplazamiento.
  //-Applies diplacement.
  double3 rpos=make_double3(rxy.x,rxy.y,rz);
  rpos.x+=movx; rpos.y+=movy; rpos.z+=movz;
  //-Comprueba limites del dominio reales.
  //-Checks limits of real domain.
  double dx=rpos.x-CTE.maprealposminx;
  double dy=rpos.y-CTE.maprealposminy;
  double dz=rpos.z-CTE.maprealposminz;
  bool out=(dx!=dx || dy!=dy || dz!=dz || dx<0 || dy<0 || dz<0 || dx>=CTE.maprealsizex || dy>=CTE.maprealsizey || dz>=CTE.maprealsizez);
  if(periactive && out){
    bool xperi=(CTE.periactive&1),yperi=(CTE.periactive&2),zperi=(CTE.periactive&4);
    if(xperi){
      if(dx<0)                { dx-=CTE.xperincx; dy-=CTE.xperincy; dz-=CTE.xperincz; }
      if(dx>=CTE.maprealsizex){ dx+=CTE.xperincx; dy+=CTE.xperincy; dz+=CTE.xperincz; }
    }
    if(yperi){
      if(dy<0)                { dx-=CTE.yperincx; dy-=CTE.yperincy; dz-=CTE.yperincz; }
      if(dy>=CTE.maprealsizey){ dx+=CTE.yperincx; dy+=CTE.yperincy; dz+=CTE.yperincz; }
    }
    if(zperi){
      if(dz<0)                { dx-=CTE.zperincx; dy-=CTE.zperincy; dz-=CTE.zperincz; }
      if(dz>=CTE.maprealsizez){ dx+=CTE.zperincx; dy+=CTE.zperincy; dz+=CTE.zperincz; }
    }
    bool outx=!xperi && (dx<0 || dx>=CTE.maprealsizex);
    bool outy=!yperi && (dy<0 || dy>=CTE.maprealsizey);
    bool outz=!zperi && (dz<0 || dz>=CTE.maprealsizez);
    out=(outx||outy||outz);
    rpos=make_double3(dx+CTE.maprealposminx,dy+CTE.maprealposminy,dz+CTE.maprealposminz);
  }
  //-Guarda posicion actualizada.
  //-Stoes updated position.
  posxy[p]=make_double2(rpos.x,rpos.y);
  posz[p]=rpos.z;
  //-Guarda celda y check.
  //-Stores cell and checks.
  if(outrhop || outmove || out){//-Particle out. Solo las particulas normales (no periodicas) se pueden marcar como excluidas. //-Particle out. Only brands as excluded normal particles (not periodic).
    word rcode=code[p];
    if(outrhop)rcode=CODE_SetOutRhop(rcode);
    else if(out)rcode=CODE_SetOutPos(rcode);
    else rcode=CODE_SetOutMove(rcode);
    code[p]=rcode;
    dcell[p]=0xFFFFFFFF;
  }
  else{//-Particle in
    if(periactive){
      dx=rpos.x-CTE.domposminx;
      dy=rpos.y-CTE.domposminy;
      dz=rpos.z-CTE.domposminz;
    }
    unsigned cx=unsigned(dx/CTE.scell),cy=unsigned(dy/CTE.scell),cz=unsigned(dz/CTE.scell);
    dcell[p]=PC__Cell(CTE.cellcode,cx,cy,cz);
  }
}

//------------------------------------------------------------------------------
/// Devuelve la posicion corregida tras aplicar condiciones periodicas.
/// Returns the corrected position after applying periodic conditions.
//------------------------------------------------------------------------------
__device__ double3 KerUpdatePeriodicPos(double3 ps)
{
  double dx=ps.x-CTE.maprealposminx;
  double dy=ps.y-CTE.maprealposminy;
  double dz=ps.z-CTE.maprealposminz;
  const bool out=(dx!=dx || dy!=dy || dz!=dz || dx<0 || dy<0 || dz<0 || dx>=CTE.maprealsizex || dy>=CTE.maprealsizey || dz>=CTE.maprealsizez);
  //-Ajusta posicion segun condiciones periodicas y vuelve a comprobar los limites del dominio.
  //-Adjusts position according to periodic conditions and rechecks domain limits.
  if(out){
    bool xperi=(CTE.periactive&1),yperi=(CTE.periactive&2),zperi=(CTE.periactive&4);
    if(xperi){
      if(dx<0)                { dx-=CTE.xperincx; dy-=CTE.xperincy; dz-=CTE.xperincz; }
      if(dx>=CTE.maprealsizex){ dx+=CTE.xperincx; dy+=CTE.xperincy; dz+=CTE.xperincz; }
    }
    if(yperi){
      if(dy<0)                { dx-=CTE.yperincx; dy-=CTE.yperincy; dz-=CTE.yperincz; }
      if(dy>=CTE.maprealsizey){ dx+=CTE.yperincx; dy+=CTE.yperincy; dz+=CTE.yperincz; }
    }
    if(zperi){
      if(dz<0)                { dx-=CTE.zperincx; dy-=CTE.zperincy; dz-=CTE.zperincz; }
      if(dz>=CTE.maprealsizez){ dx+=CTE.zperincx; dy+=CTE.zperincy; dz+=CTE.zperincz; }
    }
    ps=make_double3(dx+CTE.maprealposminx,dy+CTE.maprealposminy,dz+CTE.maprealposminz);
  }
  return(ps);
}

//------------------------------------------------------------------------------
/// Actualizacion de posicion de particulas segun desplazamiento.
/// Updates particle position according to displacement.
//------------------------------------------------------------------------------
template<bool periactive,bool floating> __global__ void KerComputeStepPos2(unsigned n,unsigned pini
  ,const double2 *posxypre,const double *poszpre,const double2 *movxy,const double *movz
  ,double2 *posxy,double *posz,unsigned *dcell,word *code)
{
  unsigned pt=blockIdx.y*gridDim.x*blockDim.x + blockIdx.x*blockDim.x + threadIdx.x; //-Nº de la partícula //-NI of the particle
  if(pt<n){
    unsigned p=pt+pini;
    const word rcode=code[p];
    const bool outrhop=(CODE_GetSpecialValue(rcode)==CODE_OUTRHOP);
    const bool fluid=(!floating || CODE_GetType(rcode)==CODE_TYPE_FLUID);
    const bool normal=(!periactive || outrhop || CODE_GetSpecialValue(rcode)==CODE_NORMAL);
    if(normal){//-No se aplica a particulas periodicas //-Does not apply to periodic particles.
      if(fluid){//-Solo se aplica desplazamiento al fluido. //-Only applied for fluid displacement.
        const double2 rmovxy=movxy[p];
        KerUpdatePos<periactive>(posxypre[p],poszpre[p],rmovxy.x,rmovxy.y,movz[p],outrhop,p,posxy,posz,dcell,code);
      }
      else{
        posxy[p]=posxypre[p];
        posz[p]=poszpre[p];
      }
    }
  }
}

//==============================================================================
/// Actualizacion de posicion de particulas segun desplazamiento.
/// Updates particle position according to displacement.
//==============================================================================
void ComputeStepPos2(const unsigned bsfluid,byte periactive,bool floating,unsigned np,unsigned npb
  ,const double2 *posxypre,const double *poszpre,const double2 *movxy,const double *movz
  ,double2 *posxy,double *posz,unsigned *dcell,word *code)
{
  const unsigned pini=npb;
  const unsigned npf=np-pini;
  if(npf){
    dim3 sgrid=GetGridSize(npf,bsfluid);
    if(periactive){ const bool peri=true;
      if(floating)KerComputeStepPos2<peri,true>  <<<sgrid,bsfluid>>> (npf,pini,posxypre,poszpre,movxy,movz,posxy,posz,dcell,code);
      else        KerComputeStepPos2<peri,false> <<<sgrid,bsfluid>>> (npf,pini,posxypre,poszpre,movxy,movz,posxy,posz,dcell,code);
    }
    else{ const bool peri=false;
      if(floating)KerComputeStepPos2<peri,true>  <<<sgrid,bsfluid>>> (npf,pini,posxypre,poszpre,movxy,movz,posxy,posz,dcell,code);
      else        KerComputeStepPos2<peri,false> <<<sgrid,bsfluid>>> (npf,pini,posxypre,poszpre,movxy,movz,posxy,posz,dcell,code);
    }
  }
}


[...]
			amg_tag_agg_pmis.set_presmooth_steps(presmooth);
			amg_tag_agg_pmis.set_postsmooth_steps(postsmooth);
			amg_tag_agg_pmis.set_coarsening_cutoff(numfreesurface);
      //amg_tag_agg_pmis.set_coarse_levels(coarselevels); 
			viennacl::linalg::amg_precond<viennacl::compressed_matrix<double> > vcl_AMG(vcl_A_cuda, amg_tag_agg_pmis);
			//std::cout << " * Setup phase (ViennaCL types)..." << std::endl;
			viennacl::tools::timer timer; 
			timer.start();
			vcl_AMG.setup();
			//std::cout << "levels = " << vcl_AMG.levels() << "\n";
			//for(int i =0; i< vcl_AMG.levels();i++) std::cout << "level " << i << "\t" << "size = " << vcl_AMG.size(i) << "\n";
			viennacl::backend::finish();
			//std::cout << "  > Setup time: " << timer.get() << std::endl;
			run_solver(vcl_A_cuda,vcl_vec,bicgstab,vcl_AMG,vcl_result);
		}
	}
	else std::cout << "norm(b)=0" << std::endl;
}

//------------------------------------------------------------------------------
/// Shifting
//------------------------------------------------------------------------------
template<TpKernel tker,TpFtMode ftmode> __device__ void KerInteractionForcesShifting2
  (bool boundp2,unsigned p1,const unsigned &pini,const unsigned &pfin,float visco,const float *ftomassp
  ,const double2 *posxy,const double *posz,double3 *velrhop,const word *code
  ,float massp2,float ftmassp1,bool ftp1
  ,double3 posdp1,double3 velp1
  ,TpShifting tshifting,double3 &shiftposp1,double Wab1,const double tensilen, const float tensiler,float &divrp1,double3 &sumtensilep1,const float *divr,const float freesurface,const float boundaryfs,double3 &dwxp1,double3 &dwyp1,double3 &dwzp1,const double PistonPos,const double PistonVel,const double RightWall,const tfloat3 gravity,const double *pressure)
{
  for(int p2=pini;p2<pfin;p2++){
    double drx,dry,drz;
    for(int count=0;count<=5;count++){
			bool interact=false;
			double3 velp2;
			double pressp2;
			double NeumannDist=0;
			KerGetParticlesDr(count,p2,posxy,posz,interact,posdp1,velrhop[p2],pressure[p2],drx,dry,drz,velp2,pressp2,PistonPos,PistonVel,NeumannDist,RightWall,gravity);
			if(interact){
				double rr2=drx*drx+dry*dry+drz*drz;
				if(rr2<=CTE.fourh2 && rr2>=ALMOSTZERO){
					//-Wendland kernel.
					double frx,fry,frz,Wab;
					if(tker==KERNEL_Quintic){
						KerGetKernelQuintic(rr2,drx,dry,drz,frx,fry,frz);
						Wab=KerGetKernelQuinticWab(rr2);
					}
					else if(tker==KERNEL_Wendland){
				//		KerGetKernelWendland(rr2,drx,dry,drz,frx,fry,frz);
					//	Wab=KerGetKernelWendlandWab(rr2);
					}

					//-Shifting correction
					const double volume=massp2/CTE.rhopzero;
					const double tensile=tensiler*pow(Wab/Wab1,tensilen);
					shiftposp1.x+=volume*frx; //-For boundary do not use shifting / Con boundary anula shifting.
					shiftposp1.y+=volume*fry;
					shiftposp1.z+=volume*frz;
					sumtensilep1.x+=volume*tensile*frx;
					sumtensilep1.y+=volume*tensile*fry;
					sumtensilep1.z+=volume*tensile*frz;
					divrp1-=volume*(drx*frx+dry*fry+drz*frz);
					dwxp1.x-=volume*frx*drx; dwxp1.y-=volume*frx*dry; dwxp1.z-=volume*frx*drz;
					dwyp1.x-=volume*fry*drx; dwyp1.y-=volume*fry*dry; dwyp1.z-=volume*fry*drz;
					dwzp1.x-=volume*frz*drx; dwzp1.y-=volume*frz*dry; dwzp1.z-=volume*frz*drz;
				}
			}
		}
  }
}

template<TpKernel tker,TpFtMode ftmode> __global__ void KerInteractionForcesShifting1
  (unsigned n,unsigned pinit,int hdiv,uint4 nc,unsigned cellfluid,float viscob,float viscof
  ,const int2 *begincell,int3 cellzero,const unsigned *dcell,const float *ftomassp
  ,const double2 *posxy,const double *posz,double3 *velrhop,const word *code
  ,TpShifting tshifting,double3 *shiftpos,float *divr,const float tensilen,const float tensiler,double3 *sumtensile,const float freesurface,const float boundaryfs,double3 *dwxcorrg,double3 *dwycorrg,double3 *dwzcorrg,const double PistonPos,const double PistonVel,const double RightWall,const tfloat3 gravity,const double *pressure)
{
  unsigned p=blockIdx.y*gridDim.x*blockDim.x + blockIdx.x*blockDim.x + threadIdx.x; //-Nº de la partícula //-NI of the particle
  if(p<n){
    unsigned p1=p+pinit;      //-Nº de particula. //-NI of particle
		const unsigned Correctp1=p;
    double Wab1;
		if(tker==KERNEL_Quintic) Wab1=KerGetKernelQuinticWab(CTE.dp*CTE.dp);
		//else if(tker==KERNEL_Wendland) Wab1=KerGetKernelWendlandWab(CTE.dp*CTE.dp);

    //-Vars para Shifting.
		//-Variables for Shifting.
    double3 shiftposp1=make_double3(0,0,0);
		double3 sumtensilep1=make_double3(0,0,0);
    float  divrp1=0;
		double3 dwxp1=make_double3(0,0,0); double3 dwyp1=make_double3(0,0,0); double3 dwzp1=make_double3(0,0,0);
    //-Obtiene datos de particula p1 en caso de existir floatings.
	//-Obtains data of particle p1 in case there are floating bodies.
    bool ftp1;       //-Indica si es floating. //-Indicates if it is floating.
    float ftmassp1;  //-Contiene masa de particula floating o 1.0f si es fluid. //-Contains floating particle mass or 1.0f if it is fluid.

    //-Obtiene datos basicos de particula p1.
	//-Obtains basic data of particle p1.
    double3 posdp1;
    double3 velp1;
    KerGetParticleData(p1,posxy,posz,velrhop,velp1,posdp1);

    //-Obtiene limites de interaccion
	//-Obtains interaction limits
    int cxini,cxfin,yini,yfin,zini,zfin;
    KerGetInteractionCells(dcell[p1],hdiv,nc,cellzero,cxini,cxfin,yini,yfin,zini,zfin);

    //-Interaccion con Fluidas.
	//-Interaction with fluids.
    for(int z=zini;z<zfin;z++){
      int zmod=(nc.w)*z+cellfluid; //-Le suma donde empiezan las celdas de fluido. //-The sum showing where fluid cells start
      for(int y=yini;y<yfin;y++){
        int ymod=zmod+nc.x*y;
        unsigned pini,pfin=0;
        for(int x=cxini;x<cxfin;x++){
          int2 cbeg=begincell[x+ymod];
          if(cbeg.y){
            if(!pfin)pini=cbeg.x;
            pfin=cbeg.y;
          }
        }
        if(pfin){
		      KerInteractionForcesShifting2<tker,ftmode> (false,p1,pini,pfin,viscob,ftomassp,posxy,posz,velrhop,code,CTE.massf,ftmassp1,ftp1,posdp1,velp1,tshifting,shiftposp1,Wab1,tensilen,tensiler,divrp1,sumtensilep1,divr,freesurface,boundaryfs,dwxp1,dwyp1,dwzp1,PistonPos,PistonVel,RightWall,gravity,pressure);
        }
	    }
    }

    /*if(shiftposp1.x||shiftposp1.y||shiftposp1.z||divrp1){
      shiftpos[Correctp1].x=shiftposp1.x; shiftpos[Correctp1].y=shiftposp1.y; shiftpos[Correctp1].z=shiftposp1.z;
      shiftposp1=make_float3(0,0,0);
      divr[p1]=divrp1;
			divrp1=0;
			sumtensile[Correctp1].x=sumtensilep1.x; sumtensile[Correctp1].y=sumtensilep1.y; sumtensile[Correctp1].z=sumtensilep1.z;
			sumtensilep1=make_float3(0,0,0);
			dwxcorrg[Correctp1].x=float(dwxp1.x); dwxcorrg[Correctp1].y=float(dwxp1.y); dwxcorrg[Correctp1].z=float(dwxp1.z); 
			dwycorrg[Correctp1].x=float(dwyp1.x); dwycorrg[Correctp1].y=float(dwyp1.y); dwycorrg[Correctp1].z=float(dwyp1.z); 
			dwzcorrg[Correctp1].x=float(dwzp1.x); dwzcorrg[Correctp1].y=float(dwzp1.y); dwzcorrg[Correctp1].z=float(dwzp1.z); 
			dwxp1=make_double3(0,0,0); dwyp1=make_double3(0,0,0); dwzp1=make_double3(0,0,0);
    }*/

    //-Interaccion con contorno.
	//-Interaction with boundaries.
   /* for(int z=zini;z<zfin;z++){
      int zmod=(nc.w)*z;
      for(int y=yini;y<yfin;y++){
        int ymod=zmod+nc.x*y;
        unsigned pini,pfin=0;
        for(int x=cxini;x<cxfin;x++){
          int2 cbeg=begincell[x+ymod];
          if(cbeg.y){
            if(!pfin)pini=cbeg.x;
            pfin=cbeg.y;
          }
        }
        if(pfin){
		      KerInteractionForcesShifting2<tker,ftmode> (true,p1,pini,pfin,viscof,ftomassp,posxy,posz,velrhop,code,CTE.massf,ftmassp1,ftp1,posdp1,velp1,tshifting,shiftposp1,Wab1,tensilen,tensiler,divrp1,sumtensilep1,divr,freesurface,boundaryfs,dwxp1,dwyp1,dwzp1);
        }
      }
    }*/
    
    if(shiftposp1.x||shiftposp1.y||shiftposp1.z||divrp1){
			shiftpos[Correctp1].x+=shiftposp1.x; shiftpos[Correctp1].y+=shiftposp1.y; shiftpos[Correctp1].z+=shiftposp1.z;
      divr[p1]+=divrp1;
			sumtensile[Correctp1].x=sumtensilep1.x; sumtensile[Correctp1].y+=sumtensilep1.y; sumtensile[Correctp1].z+=sumtensilep1.z;
			dwxcorrg[Correctp1].x+=dwxp1.x; dwxcorrg[Correctp1].y+=dwxp1.y; dwxcorrg[Correctp1].z+=dwxp1.z; 
			dwycorrg[Correctp1].x+=dwyp1.x; dwycorrg[Correctp1].y+=dwyp1.y; dwycorrg[Correctp1].z+=dwyp1.z; 
			dwzcorrg[Correctp1].x+=dwzp1.x; dwzcorrg[Correctp1].y+=dwzp1.y; dwzcorrg[Correctp1].z+=dwzp1.z; 
		}
  }
}

void Interaction_Shifting
  (TpKernel tkernel,TpSlipCond tslipcond,bool simulate2d,bool floating,bool usedem,TpCellMode cellmode,float viscob,float viscof,unsigned bsfluid,unsigned bsbound
  ,unsigned np,unsigned npb,unsigned npbok,tuint3 ncells
  ,const int2 *begincell,tuint3 cellmin,const unsigned *dcell
  ,const double2 *posxy,const double *posz
  ,double3 *velrhop,const word *code,const float *ftomassp
  ,TpShifting tshifting,double3 *shiftpos,float *divr,const float tensilen,const float tensiler
	,double3 *sumtensile,const float freesurface,const float boundaryfs,const unsigned *idp
	,const double3 *mirrorPos,const unsigned *mirrorCell,double3 *dwxcorrg,double3 *dwycorrg,double3 *dwzcorrg,double4 *mls,unsigned *row,const double pistonposx,const double PistonVel,const double RightWall,const tfloat3 gravity,const double *pressure)
{
  const unsigned npf=np-npb;
  const int hdiv=(cellmode==CELLMODE_H? 2: 1);
  const uint4 nc=make_uint4(ncells.x,ncells.y,ncells.z,ncells.x*ncells.y);
  const unsigned cellfluid=nc.w*nc.z+1;
  const int3 cellzero=make_int3(cellmin.x,cellmin.y,cellmin.z);
  //-Interaccion Fluid-Fluid & Fluid-Bound
  //-Interaction Fluid-Fluid & Fluid-Bound
  if(npf){
    dim3 sgridf=GetGridSize(npf,bsfluid);
		dim3 sgridb=GetGridSize(npb,bsbound);

		if(tkernel==KERNEL_Quintic){    const TpKernel tker=KERNEL_Quintic;
			if(!floating)   KerInteractionForcesShifting1<tker,FTMODE_None> <<<sgridf,bsfluid>>> (npf,npb,hdiv,nc,cellfluid,viscob,viscof,begincell,cellzero,dcell,ftomassp,posxy,posz,velrhop,code,tshifting,shiftpos,divr,tensilen,tensiler,sumtensile,freesurface,boundaryfs,dwxcorrg,dwycorrg,dwzcorrg,pistonposx,PistonVel,RightWall,gravity,pressure);
			else if(!usedem)KerInteractionForcesShifting1<tker,FTMODE_Sph> <<<sgridf,bsfluid>>> (npf,npb,hdiv,nc,cellfluid,viscob,viscof,begincell,cellzero,dcell,ftomassp,posxy,posz,velrhop,code,tshifting,shiftpos,divr,tensilen,tensiler,sumtensile,freesurface,boundaryfs,dwxcorrg,dwycorrg,dwzcorrg,pistonposx,PistonVel,RightWall,gravity,pressure);
			else            KerInteractionForcesShifting1<tker,FTMODE_Dem> <<<sgridf,bsfluid>>> (npf,npb,hdiv,nc,cellfluid,viscob,viscof,begincell,cellzero,dcell,ftomassp,posxy,posz,velrhop,code,tshifting,shiftpos,divr,tensilen,tensiler,sumtensile,freesurface,boundaryfs,dwxcorrg,dwycorrg,dwzcorrg,pistonposx,PistonVel,RightWall,gravity,pressure);
			
			if(simulate2d) KerInverseKernelCor2D <<<sgridf,bsfluid>>> (npf,npb,dwxcorrg,dwzcorrg,code);
		}
		else if(tkernel==KERNEL_Wendland){    const TpKernel tker=KERNEL_Wendland;
			if(!floating)   KerInteractionForcesShifting1<tker,FTMODE_None> <<<sgridf,bsfluid>>> (npf,npb,hdiv,nc,cellfluid,viscob,viscof,begincell,cellzero,dcell,ftomassp,posxy,posz,velrhop,code,tshifting,shiftpos,divr,tensilen,tensiler,sumtensile,freesurface,boundaryfs,dwxcorrg,dwycorrg,dwzcorrg,pistonposx,PistonVel,RightWall,gravity,pressure);
			else if(!usedem)KerInteractionForcesShifting1<tker,FTMODE_Sph> <<<sgridf,bsfluid>>> (npf,npb,hdiv,nc,cellfluid,viscob,viscof,begincell,cellzero,dcell,ftomassp,posxy,posz,velrhop,code,tshifting,shiftpos,divr,tensilen,tensiler,sumtensile,freesurface,boundaryfs,dwxcorrg,dwycorrg,dwzcorrg,pistonposx,PistonVel,RightWall,gravity,pressure);
			else            KerInteractionForcesShifting1<tker,FTMODE_Dem> <<<sgridf,bsfluid>>> (npf,npb,hdiv,nc,cellfluid,viscob,viscof,begincell,cellzero,dcell,ftomassp,posxy,posz,velrhop,code,tshifting,shiftpos,divr,tensilen,tensiler,sumtensile,freesurface,boundaryfs,dwxcorrg,dwycorrg,dwzcorrg,pistonposx,PistonVel,RightWall,gravity,pressure);
			
			if(simulate2d) KerInverseKernelCor2D <<<sgridf,bsfluid>>> (npf,npb,dwxcorrg,dwzcorrg,code);
		}
	}
}

template<bool floating> __global__ void KerComputeShift
  (unsigned npf,unsigned npb,const double3 *shiftpos,word *code,double2 *movxy,double *movz)
{
  unsigned p=blockIdx.y*gridDim.x*blockDim.x + blockIdx.x*blockDim.x + threadIdx.x; //-Nº de la partícula //-NI of the particle.
  if(p<npf){
    unsigned p1=p+npb;
		const unsigned Correctp1=p;
    const double3 rshiftpos=shiftpos[Correctp1];
    if(!floating || CODE_GetType(code[p1])==CODE_TYPE_FLUID){//-Particulas: Fluid //-Particles: Fluid
      double dx=rshiftpos.x;
      double dy=rshiftpos.y;
      double dz=rshiftpos.z;
      movxy[p1]=make_double2(dx,dy);
      movz[p1]=dz;
    }
  }
}

void ComputeShift(bool floating,const unsigned bsfluid,unsigned np,unsigned npb,const double3 *shiftpos
  ,word *code,double2 *movxy,double *movz)
{
  const unsigned npf=np-npb;
  if(npf){
    dim3 sgridf=GetGridSize(npf,bsfluid);
    if(floating)KerComputeShift<true>  <<<sgridf,bsfluid>>> (npf,npb,shiftpos,code,movxy,movz);
    else        KerComputeShift<false> <<<sgridf,bsfluid>>> (npf,npb,shiftpos,code,movxy,movz);
  }
}

template<TpKernel tker> __device__ void KerCalcShiftVelocity
  (const bool fluid,const unsigned &pini,const unsigned &pfin,const double2 *posxy,const double *posz,double3 posdp1
	,const double3 velp1,const double3 *velrhop,const double3 dwx,const double3 dwy,const double3 dwz,const float massp2,const float RhopZero,const word *code,const unsigned *idp
	,const float *divr,const float boundaryfs,double3 &gradvx,double3 &gradvy,double3 &gradvz,const double PistonPos,const double PistonVel,const double RightWall,const tfloat3 gravity,const double *pressure)
{
	float volumep2=massp2/RhopZero; //Volume of particle j
  for(int p2=pini;p2<pfin;p2++){
    double drx,dry,drz;
		for(int count=0;count<=5;count++){
			bool interact=false;
			double3 velp2;
			double pressp2;
			double NeumannDist=0;
			KerGetParticlesDr(count,p2,posxy,posz,interact,posdp1,velrhop[p2],pressure[p2],drx,dry,drz,velp2,pressp2,PistonPos,PistonVel,NeumannDist,RightWall,gravity);
			if(interact){
				double rr2=drx*drx+dry*dry+drz*drz;
				if(rr2<=CTE.fourh2 && rr2>=ALMOSTZERO){
					//-Wendland kernel.
						double frx,fry,frz;
						if(tker==KERNEL_Quintic) KerGetKernelQuintic(rr2,drx,dry,drz,frx,fry,frz);
						//else if(tker==KERNEL_Wendland) KerGetKernelWendland(rr2,drx,dry,drz,frx,fry,frz);

						const double temp_x=frx*dwx.x+fry*dwy.x+frz*dwz.x;
						const double temp_y=frx*dwx.y+fry*dwy.y+frz*dwz.y;
						const double temp_z=frx*dwx.z+fry*dwy.z+frz*dwz.z;

						double dvx=velp2.x-velp1.x, dvy=velp2.y-velp1.y, dvz=velp2.z-velp1.z;
						gradvx.x+=temp_x*dvx*volumep2; gradvx.y+=temp_y*dvx*volumep2; gradvx.z+=temp_z*dvx*volumep2;
						gradvy.x+=temp_x*dvy*volumep2; gradvy.y+=temp_y*dvy*volumep2; gradvy.z+=temp_z*dvy*volumep2;
						gradvz.x+=temp_x*dvz*volumep2; gradvz.y+=temp_y*dvz*volumep2; gradvz.z+=temp_z*dvz*volumep2;   
					}
			}
		}
  }
}

template<TpKernel tker> __global__ void KerFindShiftVelocity
  (unsigned n,unsigned pinit,int hdiv,uint4 nc,unsigned cellfluid,const int2 *begincell,int3 cellzero,const unsigned *dcell
  ,const double2 *posxy,const double *posz,double3 *velrhop,const double3 *dwxCorr,const double3 *dwyCorr,const double3 *dwzCorr,const float *divr,const word *code
  ,const unsigned *idp,const float boundaryfs,double3 *shiftpos,double3 *shiftvel,const double PistonPos,const double PistonVel,const double RightWall,const tfloat3 gravity,const double *pressure)
{
  unsigned p=blockIdx.y*gridDim.x*blockDim.x + blockIdx.x*blockDim.x + threadIdx.x; //-Nº de la partícula //-NI of the particle
  if(p<n){
    unsigned p1=p+pinit;      //-Nº de particula. //-NI of particle
		const unsigned Correctp1=p;
   
		//-Obtiene datos basicos de particula p1.
  	//-Obtains basic data of particle p1.
    double3 posdp1=make_double3(posxy[p1].x,posxy[p1].y,posz[p1]);
		double3 velp1=make_double3(velrhop[p1].x,velrhop[p1].y,velrhop[p1].z);
		double3 shift=make_double3(shiftpos[Correctp1].x,shiftpos[Correctp1].y,shiftpos[Correctp1].z);
		double3 gradvx=make_double3(0,0,0);
		double3 gradvy=make_double3(0,0,0);
		double3 gradvz=make_double3(0,0,0);
    //-Obtiene limites de interaccion
	  //-Obtains interaction limits
    int cxini,cxfin,yini,yfin,zini,zfin;
    KerGetInteractionCells(dcell[p1],hdiv,nc,cellzero,cxini,cxfin,yini,yfin,zini,zfin);
        
		for(int z=zini;z<zfin;z++){
			int zmod=(nc.w)*z+(cellfluid); //-Le suma donde empiezan las celdas de fluido. //-The sum showing where fluid cells start
			for(int y=yini;y<yfin;y++){
				int ymod=zmod+nc.x*y;
				unsigned pini,pfin=0;
				for(int x=cxini;x<cxfin;x++){
					int2 cbeg=begincell[x+ymod];
					if(cbeg.y){
						if(!pfin)pini=cbeg.x;
						pfin=cbeg.y;
					}
				}
				if(pfin){
					KerCalcShiftVelocity<tker> (1,pini,pfin,posxy,posz,posdp1,velp1,velrhop,dwxCorr[Correctp1],dwyCorr[Correctp1],dwzCorr[Correctp1],CTE.massf,CTE.rhopzero,code,idp,divr,boundaryfs,gradvx,gradvy,gradvz,PistonPos,PistonVel,RightWall,gravity,pressure);
				}
			}
		}

		shiftvel[Correctp1].x=velp1.x+gradvx.x*shift.x+gradvx.y*shift.y+gradvx.z*shift.z;
		shiftvel[Correctp1].y=velp1.y+gradvy.x*shift.x+gradvy.y*shift.y+gradvy.z*shift.z;
		shiftvel[Correctp1].z=velp1.z+gradvz.x*shift.x+gradvz.y*shift.y+gradvz.z*shift.z;
  }
}

template<bool wavegen> __global__ void KerCorrectShiftVelocity
  (unsigned n,unsigned pinit,double3 *velrhop,double3 *shiftvel,const double2 *posxy,const double dampingpoint,const double dampinglength)
{
  unsigned p=blockIdx.y*gridDim.x*blockDim.x + blockIdx.x*blockDim.x + threadIdx.x; //-Nº de la partícula //-NI of the particle
  if(p<n){
    unsigned p1=p+pinit;      //-Nº de particula. //-NI of particle
		const unsigned Correctp1=p;
		velrhop[p1].x=shiftvel[Correctp1].x;
		velrhop[p1].y=shiftvel[Correctp1].y;
		velrhop[p1].z=shiftvel[Correctp1].z;

		if(wavegen){
			const double xp1=posxy[p1].x;
			KerDampingZone(xp1,velrhop[p1],dampingpoint,dampinglength);
		}
  }
}

void CorrectShiftVelocity(const bool wavegen,TpKernel tkernel,TpCellMode cellmode,const unsigned bsbound,const unsigned bsfluid,unsigned np,unsigned npb,unsigned npbok,tuint3 ncells,const int2 *begincell,tuint3 cellmin
	,const unsigned *dcell,const double2 *posxy,const double *posz,double3 *velrhop,const double3 *dwxCorr,const double3 *dwyCorr,const double3 *dwzCorr
  ,const unsigned *idp,const float *divr,const word *code,const float boundaryfs,double3 *shiftpos,double3 *shiftvel,const double dampingpoint,const double dampinglength,const double PistonPos,const double PistonVel,const double RightWall,const tfloat3 gravity,const double *pressure){
  const unsigned npf=np-npb;
  const int hdiv=(cellmode==CELLMODE_H? 2: 1);
  const uint4 nc=make_uint4(ncells.x,ncells.y,ncells.z,ncells.x*ncells.y);
  const unsigned cellfluid=nc.w*nc.z+1;
  const int3 cellzero=make_int3(cellmin.x,cellmin.y,cellmin.z);
  //-Interaccion Fluid-Fluid & Fluid-Bound
  //-Interaction Fluid-Fluid & Fluid-Bound
  if(npf){
    dim3 sgridf=GetGridSize(npf,bsfluid);

		if(tkernel==KERNEL_Quintic){    const TpKernel tker=KERNEL_Quintic;
			KerFindShiftVelocity<tker> <<<sgridf,bsfluid>>> (npf,npb,hdiv,nc,cellfluid,begincell,cellzero,dcell,posxy,posz,velrhop,dwxCorr,dwyCorr,dwzCorr,divr,code,idp,boundaryfs,shiftpos,shiftvel,PistonPos,PistonVel,RightWall,gravity,pressure);
		}
		else if(tkernel==KERNEL_Wendland){    const TpKernel tker=KERNEL_Wendland;
			KerFindShiftVelocity<tker> <<<sgridf,bsfluid>>> (npf,npb,hdiv,nc,cellfluid,begincell,cellzero,dcell,posxy,posz,velrhop,dwxCorr,dwyCorr,dwzCorr,divr,code,idp,boundaryfs,shiftpos,shiftvel,PistonPos,PistonVel,RightWall,gravity,pressure);
		}

		if(wavegen) KerCorrectShiftVelocity<true> <<<sgridf,bsfluid>>> (npf,npb,velrhop,shiftvel,posxy,dampingpoint,dampinglength);
		else KerCorrectShiftVelocity<false> <<<sgridf,bsfluid>>> (npf,npb,velrhop,shiftvel,posxy,dampingpoint,dampinglength);
	}
}

}