/*
 <DUALSPHYSICS>  Copyright (c) 2015, Jose M. Dominguez et al. (see http://dual.sphysics.org/index.php/developers/). 

 EPHYSLAB Environmental Physics Laboratory, Universidade de Vigo, Ourense, Spain.
 School of Mechanical, Aerospace and Civil Engineering, University of Manchester, Manchester, U.K.

 This file is part of DualSPHysics. 

 DualSPHysics is free software: you can redistribute it and/or modify it under the terms of the GNU General Public License as published by
 the Free Software Foundation, either version 3 of the License, or (at your option) any later version. 

 DualSPHysics is distributed in the hope that it will be useful, but WITHOUT ANY WARRANTY; without even the implied warranty of
 MERCHANTABILITY or FITNESS FOR A PARTICULAR PURPOSE.  See the GNU General Public License for more details. 

 You should have received a copy of the GNU General Public License, along with DualSPHysics. If not, see <http://www.gnu.org/licenses/>. 
*/

#include "JSphGpu_ker.h"
#include <float.h>
#include "JLog2.h"
#include <math_constants.h>
//#include "JDgKerPrint.h"
//#include "JDgKerPrint_ker.h"

#pragma warning(disable : 4267) //Cancels "warning C4267: conversion from 'size_t' to 'int', possible loss of data"
#pragma warning(disable : 4244) //Cancels "warning C4244: conversion from 'unsigned __int64' to 'unsigned int', possible loss of data"
#include <thrust/device_vector.h>
#include <thrust/sort.h>

#include <iostream>
#include <cstdlib>
#include <string>
#include <cuda.h>

#define VIENNACL_WITH_CUDA
#include "viennacl/vector.hpp"
#include "viennacl/compressed_matrix.hpp"
#include "viennacl/linalg/bicgstab.hpp"
#include "viennacl/linalg/gmres.hpp"
#include "viennacl/tools/timer.hpp"
#include "viennacl/linalg/norm_2.hpp"
#include "viennacl/linalg/jacobi_precond.hpp"
#include "viennacl/forwards.h"
#include "viennacl/linalg/amg.hpp"
#include "viennacl/linalg/prod.hpp"

__constant__ StCteInteraction CTE;

namespace cusph{

//==============================================================================
/// Comprueba error y finaliza ejecucion.
/// Checks mistake and ends execution.
//==============================================================================
#define CheckErrorCuda(text)  __CheckErrorCuda(text,__FILE__,__LINE__)
void __CheckErrorCuda(const char *text,const char *file,const int line){
  cudaError_t err=cudaGetLastError();
  if(cudaSuccess!=err){
    char cad[2048]; 
    sprintf(cad,"%s (CUDA error: %s -> %s:%i).\n",text,cudaGetErrorString(err),file,line); 
    throw std::string(cad);
  }
}

//==============================================================================
/// Devuelve tamaño de gridsize segun parametros.
/// Returns size of gridsize according to parameters.
//==============================================================================
dim3 GetGridSize(unsigned n,unsigned blocksize){
  dim3 sgrid;//=dim3(1,2,3);
  unsigned nb=unsigned(n+blocksize-1)/blocksize;//-Numero total de bloques a lanzar. //-Total block number to throw.
  sgrid.x=(nb<=65535? nb: unsigned(sqrt(float(nb))));
  sgrid.y=(nb<=65535? 1: unsigned((nb+sgrid.x-1)/sgrid.x));
  sgrid.z=1;
  return(sgrid);
}

//==============================================================================
/// Reduccion mediante maximo de valores float en memoria shared para un warp.
/// Reduction using maximum of float values in shared memory for a warp.
//==============================================================================
template <unsigned blockSize> __device__ void KerReduMaxFloatWarp(volatile float* sdat,unsigned tid) {
  if(blockSize>=64)sdat[tid]=max(sdat[tid],sdat[tid+32]);
  if(blockSize>=32)sdat[tid]=max(sdat[tid],sdat[tid+16]);
  if(blockSize>=16)sdat[tid]=max(sdat[tid],sdat[tid+8]);
  if(blockSize>=8)sdat[tid]=max(sdat[tid],sdat[tid+4]);
  if(blockSize>=4)sdat[tid]=max(sdat[tid],sdat[tid+2]);
  if(blockSize>=2)sdat[tid]=max(sdat[tid],sdat[tid+1]);
}

//==============================================================================
/// ES:
/// Acumula la suma de n valores del vector dat[], guardando el resultado al 
/// principio de res[] (Se usan tantas posiciones del res[] como bloques, 
/// quedando el resultado final en res[0]).
/// - EN:
/// Accumulates the sum of n values of array dat[], storing the result in 
/// the beginning of res[].(Many positions of res[] are used as blocks, 
/// storing the final result in res[0]).
//==============================================================================
template <unsigned blockSize> __global__ void KerReduMaxFloat(unsigned n,unsigned ini,const float *dat,float *res){
  extern __shared__ float sdat[];
  unsigned tid=threadIdx.x;
  unsigned c=blockIdx.y*gridDim.x*blockDim.x + blockIdx.x*blockDim.x + threadIdx.x;
  sdat[tid]=(c<n? dat[c+ini]: -FLT_MAX);
  __syncthreads();
  if(blockSize>=512){ if(tid<256)sdat[tid]=max(sdat[tid],sdat[tid+256]);  __syncthreads(); }
  if(blockSize>=256){ if(tid<128)sdat[tid]=max(sdat[tid],sdat[tid+128]);  __syncthreads(); }
  if(blockSize>=128){ if(tid<64) sdat[tid]=max(sdat[tid],sdat[tid+64]);   __syncthreads(); }
  if(tid<32)KerReduMaxFloatWarp<blockSize>(sdat,tid);
  if(tid==0)res[blockIdx.y*gridDim.x + blockIdx.x]=sdat[0];
}

//==============================================================================
/// ES:
/// Devuelve el maximo de un vector, usando resu[] como vector auxiliar. El tamaño
/// de resu[] debe ser >= a (N/SPHBSIZE+1)+(N/(SPHBSIZE*SPHBSIZE)+SPHBSIZE)
/// - EN:
/// Returns the maximum of an array, using resu[] as auxiliar array.
/// Size of resu[] must be >= a (N/SPHBSIZE+1)+(N/(SPHBSIZE*SPHBSIZE)+SPHBSIZE)
//==============================================================================
float ReduMaxFloat(unsigned ndata,unsigned inidata,float* data,float* resu){
  unsigned n=ndata,ini=inidata;
  unsigned smemSize=SPHBSIZE*sizeof(float);
  dim3 sgrid=GetGridSize(n,SPHBSIZE);
  unsigned n_blocks=sgrid.x*sgrid.y;
  float *dat=data;
  float *resu1=resu,*resu2=resu+n_blocks;
  float *res=resu1;
  while(n>1){
    KerReduMaxFloat<SPHBSIZE><<<sgrid,SPHBSIZE,smemSize>>>(n,ini,dat,res);
    n=n_blocks; ini=0;
    sgrid=GetGridSize(n,SPHBSIZE);  
    n_blocks=sgrid.x*sgrid.y;
    if(n>1){
      dat=res; res=(dat==resu1? resu2: resu1); 
    }
  }
  float resf;
  if(ndata>1)cudaMemcpy(&resf,res,sizeof(float),cudaMemcpyDeviceToHost);
  else cudaMemcpy(&resf,data,sizeof(float),cudaMemcpyDeviceToHost);
  return(resf);
}

//==============================================================================
/// ES:
/// Acumula la suma de n valores del vector dat[].w, guardando el resultado al 
/// principio de res[] (Se usan tantas posiciones del res[] como bloques, 
/// quedando el resultado final en res[0]).
/// - EN:
/// Accumulates the sum of n values of array dat[], storing the result in 
/// the beginning of res[].(Many positions of res[] are used as blocks, 
/// storing the final result in res[0]).
//==============================================================================
template <unsigned blockSize> __global__ void KerReduMaxFloat_w(unsigned n,unsigned ini,const float4 *dat,float *res){
  extern __shared__ float sdat[];
  unsigned tid=threadIdx.x;
  unsigned c=blockIdx.y*gridDim.x*blockDim.x + blockIdx.x*blockDim.x + threadIdx.x;
  sdat[tid]=(c<n? dat[c+ini].w: -FLT_MAX);
  __syncthreads();
  if(blockSize>=512){ if(tid<256)sdat[tid]=max(sdat[tid],sdat[tid+256]);  __syncthreads(); }
  if(blockSize>=256){ if(tid<128)sdat[tid]=max(sdat[tid],sdat[tid+128]);  __syncthreads(); }
  if(blockSize>=128){ if(tid<64) sdat[tid]=max(sdat[tid],sdat[tid+64]);   __syncthreads(); }
  if(tid<32)KerReduMaxFloatWarp<blockSize>(sdat,tid);
  if(tid==0)res[blockIdx.y*gridDim.x + blockIdx.x]=sdat[0];
}

//==============================================================================
/// ES:
/// Devuelve el maximo de la componente w de un vector float4, usando resu[] como 
/// vector auxiliar. El tamaño de resu[] debe ser >= a (N/SPHBSIZE+1)+(N/(SPHBSIZE*SPHBSIZE)+SPHBSIZE)
/// - EN:
/// Returns the maximum of an array, using resu[] as auxiliar array.
/// Size of resu[] must be >= a (N/SPHBSIZE+1)+(N/(SPHBSIZE*SPHBSIZE)+SPHBSIZE)
//==============================================================================
float ReduMaxFloat_w(unsigned ndata,unsigned inidata,float4* data,float* resu){
  unsigned n=ndata,ini=inidata;
  unsigned smemSize=SPHBSIZE*sizeof(float);
  dim3 sgrid=GetGridSize(n,SPHBSIZE);
  unsigned n_blocks=sgrid.x*sgrid.y;
  float *dat=NULL;
  float *resu1=resu,*resu2=resu+n_blocks;
  float *res=resu1;
  while(n>1){
    if(!dat)KerReduMaxFloat_w<SPHBSIZE><<<sgrid,SPHBSIZE,smemSize>>>(n,ini,data,res);
    else KerReduMaxFloat<SPHBSIZE><<<sgrid,SPHBSIZE,smemSize>>>(n,ini,dat,res);
    n=n_blocks; ini=0;
    sgrid=GetGridSize(n,SPHBSIZE);  
    n_blocks=sgrid.x*sgrid.y;
    if(n>1){
      dat=res; res=(dat==resu1? resu2: resu1); 
    }
  }
  float resf;
  if(ndata>1)cudaMemcpy(&resf,res,sizeof(float),cudaMemcpyDeviceToHost);
  else{
    float4 resf4;
    cudaMemcpy(&resf4,data,sizeof(float4),cudaMemcpyDeviceToHost);
    resf=resf4.w;
  }
  return(resf);
}

//==============================================================================
/// Graba constantes para la interaccion a la GPU.
/// Stores constants for the GPU interaction.
//==============================================================================
void CteInteractionUp(const StCteInteraction *cte){
  cudaMemcpyToSymbol(CTE,cte,sizeof(StCteInteraction));
}

//------------------------------------------------------------------------------
/// Inicializa array con el valor indicado.
/// Initialises array with the indicated value.
//------------------------------------------------------------------------------
__global__ void KerInitArray(unsigned n,float3 *v,float3 value)
{
  unsigned p=blockIdx.y*gridDim.x*blockDim.x + blockIdx.x*blockDim.x + threadIdx.x; //-Nº de la particula //-NI of the particle
  if(p<n)v[p]=value;
}

//==============================================================================
/// Inicializa array con el valor indicado.
/// Initialises array with the indicated value.
//==============================================================================
void InitArray(unsigned n,float3 *v,tfloat3 value){
  if(n){
    dim3 sgrid=GetGridSize(n,SPHBSIZE);
    KerInitArray <<<sgrid,SPHBSIZE>>> (n,v,Float3(value));
  }
}

//------------------------------------------------------------------------------
/// Pone v[].y a cero.
/// Sets v[].y to zero.
//------------------------------------------------------------------------------
__global__ void KerResety(unsigned n,unsigned ini,double3 *v)
{
  unsigned p=blockIdx.y*gridDim.x*blockDim.x + blockIdx.x*blockDim.x + threadIdx.x; //-Nº de la partícula //-NI of the particle
  if(p<n)v[p+ini].y=0;
}

//==============================================================================
// Pone v[].y a cero.
/// Sets v[].y to zero.
//==============================================================================
void Resety(unsigned n,unsigned ini,double3 *v){
  if(n){
    dim3 sgrid=GetGridSize(n,SPHBSIZE);
    KerResety <<<sgrid,SPHBSIZE>>> (n,ini,v);
  }
}

//------------------------------------------------------------------------------
/// Calculates module^2 of ace.
//------------------------------------------------------------------------------
__global__ void KerComputeAceMod(unsigned n,const double3 *ace,float *acemod)
{
  unsigned p=blockIdx.y*gridDim.x*blockDim.x + blockIdx.x*blockDim.x + threadIdx.x; //-Number of particle.
  if(p<n){
    const double3 r=ace[p];
    acemod[p]=r.x*r.x+r.y*r.y+r.z*r.z;
  }
}

//==============================================================================
/// Calculates module^2 of ace.
//==============================================================================
void ComputeAceMod(unsigned n,const double3 *ace,float *acemod){
  if(n){
    dim3 sgrid=GetGridSize(n,SPHBSIZE);
    KerComputeAceMod <<<sgrid,SPHBSIZE>>> (n,ace,acemod);
  }
}

//------------------------------------------------------------------------------
/// Calculates module^2 of ace, comprobando que la particula sea normal.
//------------------------------------------------------------------------------
__global__ void KerComputeAceMod(unsigned n,const word *code,const double3 *ace,float *acemod)
{
  unsigned p=blockIdx.y*gridDim.x*blockDim.x + blockIdx.x*blockDim.x + threadIdx.x; //-Number of particle.
  if(p<n){
    const double3 r=(CODE_GetSpecialValue(code[p])==CODE_NORMAL? ace[p]: make_double3(0,0,0));
    acemod[p]=r.x*r.x+r.y*r.y+r.z*r.z;
  }
}

//==============================================================================
/// Calculates module^2 of ace, comprobando que la particula sea normal.
//==============================================================================
void ComputeAceMod(unsigned n,const word *code,const double3 *ace,float *acemod){
  if(n){
    dim3 sgrid=GetGridSize(n,SPHBSIZE);
    KerComputeAceMod <<<sgrid,SPHBSIZE>>> (n,code,ace,acemod);
  }
}


//##############################################################################
//# Otros kernels...
//# Other kernels...
//##############################################################################
//------------------------------------------------------------------------------
/// Calculates module^2 of vel.
//------------------------------------------------------------------------------
__global__ void KerComputeVelMod(unsigned n,const float4 *vel,float *velmod)
{
  unsigned p=blockIdx.y*gridDim.x*blockDim.x + blockIdx.x*blockDim.x + threadIdx.x; //-Number of particle.
  if(p<n){
    const float4 r=vel[p];
    velmod[p]=r.x*r.x+r.y*r.y+r.z*r.z;
  }
}

//==============================================================================
/// Calculates module^2 of vel.
//==============================================================================
void ComputeVelMod(unsigned n,const float4 *vel,float *velmod){
  if(n){
    dim3 sgrid=GetGridSize(n,SPHBSIZE);
    KerComputeVelMod <<<sgrid,SPHBSIZE>>> (n,vel,velmod);
  }
}


//##############################################################################
//# Kernels para preparar calculo de fuerzas con Pos-Simple.
//# Kernels for preparing force computation with Pos-Simple.
//##############################################################################
//------------------------------------------------------------------------------
/// Prepara variables para interaccion pos-simple.
/// Prepare variables for pos-simple interaction.
//------------------------------------------------------------------------------
__global__ void KerPreInteractionSimple(unsigned n,const double2 *posxy,const double *posz
  ,const float4 *velrhop,float4 *pospress,float cteb,float gamma)
{
  unsigned p=blockIdx.y*gridDim.x*blockDim.x + blockIdx.x*blockDim.x + threadIdx.x; //-Nº de la partícula
  if(p<n){
    //Calcular press en simple o doble precision no parece tener ningun efecto positivo significativo,
    //y como para PosDouble si se calcula antes y se lee en la interaccion supondria una perdida de 
    //rendimiento del 6% o 15% (gtx480 o k20c) mejor se calcula en simple siempre.
	//Computes press in single or double precision,although the latter does not have any significant positive effect,
    //and like PosDouble if it is previously calculated and read the interaction can incur losses of
    //performance of 6% or 15% (GTX480 or k20c) so it is best calculated as always simple.
    const float rrhop=velrhop[p].w;
    float press=cteb*(powf(rrhop*CTE.ovrhopzero,gamma)-1.0f);
    double2 rpos=posxy[p];
    pospress[p]=make_float4(float(rpos.x),float(rpos.y),float(posz[p]),press);
  }
}

//==============================================================================
/// Prepara variables para interaccion pos-simple.
/// Prepare variables for pos-simple interaction.
//==============================================================================
void PreInteractionSimple(unsigned np,const double2 *posxy,const double *posz
  ,const float4 *velrhop,float4 *pospress,float cteb,float ctegamma)
{
  if(np){
    dim3 sgrid=GetGridSize(np,SPHBSIZE);
    KerPreInteractionSimple <<<sgrid,SPHBSIZE>>> (np,posxy,posz,velrhop,pospress,cteb,ctegamma);
  }
}


//##############################################################################
//# Kernels auxiliares para interaccion.
//# Auxiliary kernels for the interaction.
//##############################################################################
//------------------------------------------------------------------------------
/// Devuelve posicion, vel, rhop y press de particula. USADA
/// Returns position, vel, rhop and press of a particle. USED
//------------------------------------------------------------------------------
template<bool psimple> __device__ void KerGetParticleData(unsigned p1
  ,const double2 *posxy,const double *posz,const float4 *pospress,const float4 *velrhop
  ,float3 &velp1,float &rhopp1,double3 &posdp1,float3 &posp1,float &pressp1)
{
  float4 r=velrhop[p1];
  velp1=make_float3(r.x,r.y,r.z);
  rhopp1=r.w;
  double2 pxy=posxy[p1];
  posdp1=make_double3(pxy.x,pxy.y,posz[p1]);
  pressp1=(CTE.cteb*(powf(rhopp1*CTE.ovrhopzero,CTE.gamma)-1.0f));
}

//------------------------------------------------------------------------------
/// Devuelve posicion y vel de particula.
/// Returns postion and vel of a particle.
//------------------------------------------------------------------------------
template<bool psimple> __device__ void KerGetParticleData(unsigned p1
  ,const double2 *posxy,const double *posz,const float4 *pospress,const float4 *velrhop
  ,float3 &velp1,double3 &posdp1,float3 &posp1)
{
  float4 r=velrhop[p1];
  velp1=make_float3(r.x,r.y,r.z);
  double2 pxy=posxy[p1];
  posdp1=make_double3(pxy.x,pxy.y,posz[p1]);
}

//------------------------------------------------------------------------------
/// Devuelve posicion de particula. USADA
/// Returns particle postion. USED
//------------------------------------------------------------------------------
template<bool psimple> __device__ void KerGetParticleData(unsigned p1
  ,const double2 *posxy,const double *posz,const float4 *pospress
  ,double3 &posdp1,float3 &posp1)
{
  double2 pxy=posxy[p1];
  posdp1=make_double3(pxy.x,pxy.y,posz[p1]);
}

//------------------------------------------------------------------------------
/// Devuelve drx, dry y drz entre dos particulas. USADA
/// Returns drx, dry and drz between the particles. USED
//------------------------------------------------------------------------------
template<bool psimple> __device__ void KerGetParticlesDr(int p2
  ,const double2 *posxy,const double *posz,const float4 *pospress
  ,const double3 &posdp1,const float3 &posp1
  ,double &drx,double &dry,double &drz,float &pressp2)
{
  double2 posp2=posxy[p2];
  drx=posdp1.x-posp2.x;
  dry=posdp1.y-posp2.y;
  drz=posdp1.z-posz[p2];
  pressp2=0;
}

//------------------------------------------------------------------------------
/// Devuelve drx, dry y drz entre dos particulas.
/// Returns drx, dry and drz between the particles.
//------------------------------------------------------------------------------
template<bool psimple> __device__ void KerGetParticlesDr(int p2
  ,const double2 *posxy,const double *posz,const float4 *pospress
  ,const double3 &posdp1,const float3 &posp1
  ,double &drx,double &dry,double &drz)
{
    double2 posp2=posxy[p2];
    drx=posdp1.x-posp2.x;
    dry=posdp1.y-posp2.y;
    drz=posdp1.z-posz[p2];
}

//------------------------------------------------------------------------------
/// Devuelve limites de celdas para interaccion.
/// Returns cell limits for the interaction.
//------------------------------------------------------------------------------
__device__ void KerGetInteractionCells(unsigned rcell
  ,int hdiv,const uint4 &nc,const int3 &cellzero
  ,int &cxini,int &cxfin,int &yini,int &yfin,int &zini,int &zfin)
{
  //-Obtiene limites de interaccion
  //-Obtains interaction limits.
  const int cx=PC__Cellx(CTE.cellcode,rcell)-cellzero.x;
  const int cy=PC__Celly(CTE.cellcode,rcell)-cellzero.y;
  const int cz=PC__Cellz(CTE.cellcode,rcell)-cellzero.z;
  //-Codigo para hdiv 1 o 2 pero no cero.
  //-Code for hdiv 1 or 2 but not zero.
  cxini=cx-min(cx,hdiv);
  cxfin=cx+min(nc.x-cx-1,hdiv)+1;
  yini=cy-min(cy,hdiv);
  yfin=cy+min(nc.y-cy-1,hdiv)+1;
  zini=cz-min(cz,hdiv);
  zfin=cz+min(nc.z-cz-1,hdiv)+1;
}

//------------------------------------------------------------------------------
/// Devuelve limites de celdas para interaccion.
/// Returns cell limits for the interaction.
//------------------------------------------------------------------------------
__device__ void KerGetInteractionCells(double px,double py,double pz
  ,int hdiv,const uint4 &nc,const int3 &cellzero
  ,int &cxini,int &cxfin,int &yini,int &yfin,int &zini,int &zfin)
{
  //-Obtiene limites de interaccion
  //-Obtains interaction limits.
  const int cx=int((px-CTE.domposminx)/CTE.scell)-cellzero.x;
  const int cy=int((py-CTE.domposminy)/CTE.scell)-cellzero.y;
  const int cz=int((pz-CTE.domposminz)/CTE.scell)-cellzero.z;
  //-Codigo para hdiv 1 o 2 pero no cero.
  //-Code for hdiv 1 or 2 but not zero.
  cxini=cx-min(cx,hdiv);
  cxfin=cx+min(nc.x-cx-1,hdiv)+1;
  yini=cy-min(cy,hdiv);
  yfin=cy+min(nc.y-cy-1,hdiv)+1;
  zini=cz-min(cz,hdiv);
  zfin=cz+min(nc.z-cz-1,hdiv)+1;
}

//------------------------------------------------------------------------------
/// Devuelve valores de kernel: frx, fry y frz. USADA
/// Returns kernel values: frx, fry and frz. USED
//------------------------------------------------------------------------------
__device__ void KerGetKernel(double rr2,double drx,double dry,double drz
  ,double &frx,double &fry,double &frz)
{
  const double rad=sqrt(rr2);
  const double qq=rad/CTE.h;
  //-Wendland kernel.
  const double wqq1=1.f-0.5f*qq;
  const double fac=CTE.bwen*qq*wqq1*wqq1*wqq1/rad;
  frx=fac*drx; fry=fac*dry; frz=fac*drz;
}

//------------------------------------------------------------------------------
/// Devuelve valores de kernel: wab.
/// returns kernel values: wab.
//------------------------------------------------------------------------------
__device__ float KerGetKernelWab(float rr2)
{
  const float rad=sqrt(rr2);
  const float qq=rad/CTE.h;
  //-Wendland kernel.
  const float wqq=2.f*qq+1.f;
  const float wqq1=1.f-0.5f*qq;
  const float wqq2=wqq1*wqq1;
  return(CTE.awen*wqq*wqq2*wqq2);
}


//##############################################################################
//# Kernels para calculo de fuerzas (Pos-Double)
//# Kernels for calculating forces (Pos-Double)
//##############################################################################
//------------------------------------------------------------------------------
/// Realiza la interaccion de una particula con un conjunto de ellas. Bound-Fluid/Float
/// Interaction of a particle with a set of particles (Bound-Fluid).
//------------------------------------------------------------------------------
template<bool psimple,TpFtMode ftmode> __device__ void KerInteractionForcesBoundBox
  (unsigned p1,const unsigned &pini,const unsigned &pfin
  ,const float *ftomassp
  ,const double2 *posxy,const double *posz,const float4 *pospress,float4 *velrhop,const word *code,const unsigned* idp
  ,float massf,double3 posdp1,float3 posp1,float3 velp1,float &arp1,float &visc)
{
    float Sum1x=0.0;
    float Sum1z=0.0;
    float Sum2=0.0;
    for(int p2=pini;p2<pfin;p2++){

    double drx,dry,drz;
    KerGetParticlesDr<psimple>(p2,posxy,posz,pospress,posdp1,posp1,drx,dry,drz);
    double rr2=drx*drx+dry*dry+drz*drz;
    if(rr2<=CTE.fourh2 && rr2>=ALMOSTZERO){
      //-Wendland kernel
      double frx,fry,frz;
      KerGetKernel(rr2,drx,dry,drz,frx,fry,frz);
      const float4 velrhop2=velrhop[p2];
      const float W=KerGetKernelWab(rr2);
      Sum1x+=W*velrhop2.x;
      Sum1z+=W*velrhop2.z;
      Sum2+=W;

      
      //-Obtiene masa de particula p2 en caso de existir floatings.
	  //-Obtains particle mass p2 if there are floating bodies.
     // float ftmassp2;    //-Contiene masa de particula floating o massf si es fluid. //-Contains mass of floating body or massf if fluid.
     // bool compute=true; //-Se desactiva cuando se usa DEM y es float-float o float-bound. //-Deactivated when DEM is used and is float-float or float-bound.
     /* if(USE_FLOATING){
        const word cod=code[p2];
        bool ftp2=(CODE_GetType(cod)==CODE_TYPE_FLOATING);
        ftmassp2=(ftp2? ftomassp[CODE_GetTypeValue(cod)]: massf);
        compute=!(USE_DEM && ftp2); //-Se desactiva cuando se usa DEM y es bound-float. //-Deactivated when DEM is used and is bound-float.
      }*/
    }
  }
  if(Sum2){
    velrhop[p1].x=(Sum1x/Sum2)/2.0f;
    velrhop[p1].z=(Sum1z/Sum2)/2.0f;
  }
}

//------------------------------------------------------------------------------
/// Realiza interaccion entre particulas. Bound-Fluid/Float
/// Particle interaction. Bound-Fluid/Float
//------------------------------------------------------------------------------
template<bool psimple,TpFtMode ftmode> __global__ void KerInteractionForcesBound
  (unsigned n,int hdiv,uint4 nc,const int2 *begincell,int3 cellzero,const unsigned *dcell
  ,const float *ftomassp
  ,const double2 *posxy,const double *posz,const float4 *pospress,float4 *velrhop,const word *code,const unsigned *idp
  ,float *viscdt,float *ar)
{
  unsigned p1=blockIdx.y*gridDim.x*blockDim.x + blockIdx.x*blockDim.x + threadIdx.x; //-Nº de la partícula //-NI of particle.
  if(p1<n){
    if(CODE_GetTypeValue(code[p1])==0){
      float visc=0,arp1=0;
      //-Carga datos de particula p1.
	  //-Loads particle p1 data.
      double3 posdp1;
      float3 posp1,velp1;
      KerGetParticleData<psimple>(p1,posxy,posz,pospress,velrhop,velp1,posdp1,posp1);

      //-Obtiene limites de interaccion
	  //-Obtains interaction limits
      int cxini,cxfin,yini,yfin,zini,zfin;
      KerGetInteractionCells(dcell[p1],hdiv,nc,cellzero,cxini,cxfin,yini,yfin,zini,zfin);

      //-Interaccion de Contorno con Fluidas.
	  //-Boundary-Fluid interaction.
      for(int z=zini;z<zfin;z++){
        int zmod=(nc.w)*z+(nc.w*nc.z+1);//-Le suma Nct+1 que es la primera celda de fluido. //-Adds Nct + 1 which is the first cell fluid.
        for(int y=yini;y<yfin;y++){
          int ymod=zmod+nc.x*y;
          unsigned pini,pfin=0;
          for(int x=cxini;x<cxfin;x++){
            int2 cbeg=begincell[x+ymod];
            if(cbeg.y){
              if(!pfin)pini=cbeg.x;
              pfin=cbeg.y;
            }
          }
          if(pfin)KerInteractionForcesBoundBox<psimple,ftmode> (p1,pini,pfin,ftomassp,posxy,posz,pospress,velrhop,code,idp,CTE.massf,posdp1,posp1,velp1,arp1,visc);
        }
      }
    }
  }
}

//------------------------------------------------------------------------------
/// Realiza la interaccion de una particula con un conjunto de ellas. (Fluid/Float-Fluid/Float/Bound)
/// Interaction of a particle with a set of particles. (Fluid/Float-Fluid/Float/Bound)
//------------------------------------------------------------------------------
template<bool psimple,TpFtMode ftmode> __device__ void KerInteractionForcesFluidVisc
  (bool boundp2,unsigned p1,const unsigned &pini,const unsigned &pfin,float visco
  ,const float *ftomassp,const float2 *tauff
  ,const double2 *posxy,const double *posz,const float4 *pospress,const float4 *velrhop,const word *code,const unsigned *idp
  ,float massp2,float ftmassp1,bool ftp1
  ,double3 posdp1,float3 posp1,float3 velp1,float pressp1,float rhopp1
  ,const float2 &taup1_xx_xy,const float2 &taup1_xz_yy,const float2 &taup1_yz_zz
  ,float2 &grap1_xx_xy,float2 &grap1_xz_yy,float2 &grap1_yz_zz
  ,double3 &acep1,float &arp1,float &visc)
{
  for(int p2=pini;p2<pfin;p2++){
    double drx,dry,drz;
    float pressp2;
    KerGetParticlesDr<psimple> (p2,posxy,posz,pospress,posdp1,posp1,drx,dry,drz,pressp2);
    double rr2=drx*drx+dry*dry+drz*drz;
    if(rr2<=CTE.fourh2 && rr2>=ALMOSTZERO){
      //-Wendland kernel.
      double frx,fry,frz;
      KerGetKernel(rr2,drx,dry,drz,frx,fry,frz);
	  
      //-Obtiene masa de particula p2 en caso de existir floatings.
	  //-Obtains mass of particle p2 if any floating bodies exist.
      //bool ftp2;         //-Indica si es floating. //-indicates if it is floating.
      //float ftmassp2;    //-Contiene masa de particula floating o massp2 si es bound o fluid. //-Contains mass of floating body or massf if fluid.
      bool compute=true; //-Se desactiva cuando se usa DEM y es float-float o float-bound. //-Deactivated when DEM is used and is float-float or float-bound.
      /*if(USE_FLOATING){
        const word cod=code[p2];
        ftp2=(CODE_GetType(cod)==CODE_TYPE_FLOATING);
        ftmassp2=(ftp2? ftomassp[CODE_GetTypeValue(cod)]: massp2);
        if(ftp2 && (tdelta==DELTA_Dynamic || tdelta==DELTA_DynamicExt))deltap1=FLT_MAX;
        if(ftp2 && shift && tshifting==SHIFT_NoBound)shiftposp1.x=FLT_MAX; //-Con floatings anula shifting. //-Cancels shifting with floating bodies
        compute=!(USE_DEM && ftp1 && (boundp2 || ftp2)); //-Se desactiva cuando se usa DEM y es float-float o float-bound. //-Deactivated when DEM is used and is float-float or float-bound.
      }*/

      const float4 velrhop2=velrhop[p2];
      
      //===== Aceleration ===== 
      if(compute){
		    const double volumep2=massp2/CTE.rhopzero; //Volume of particle j 
		    const double rDivW=drx*frx+dry*fry+drz*frz;//R.Div(W)
		    const double temp=volumep2*2.0f*visco*rDivW/(rr2+CTE.eta2);
	      const double dvx=velp1.x-velrhop2.x, dvy=velp1.y-velrhop2.y, dvz=velp1.z-velrhop2.z;
        acep1.x+=temp*dvx; acep1.y+=temp*dvy; acep1.z+=temp*dvz;
      }
    }
  }
}

//------------------------------------------------------------------------------
/// Realiza la interaccion de una particula con un conjunto de ellas. (Fluid/Float-Fluid/Float/Bound)
/// Interaction of a particle with a set of particles. (Fluid/Float-Fluid/Float/Bound)
//------------------------------------------------------------------------------
template<bool psimple,TpFtMode ftmode> __device__ void KerInteractionForcesFluidPresGrad
  (bool boundp2,unsigned p1,const unsigned &pini,const unsigned &pfin,float visco
  ,const float *ftomassp,const float2 *tauff
  ,const double2 *posxy,const double *posz,const float4 *pospress,const float4 *velrhop,const word *code,const unsigned *idp
  ,double3 *dwxcorrg,double3 *dwzcorrg,float massp2,float ftmassp1,bool ftp1
  ,double3 posdp1,float3 posp1,float3 velp1,float pressp1,float rhopp1
  ,const float2 &taup1_xx_xy,const float2 &taup1_xz_yy,const float2 &taup1_yz_zz
  ,float2 &grap1_xx_xy,float2 &grap1_xz_yy,float2 &grap1_yz_zz
  ,double3 &acep1,float &arp1,float &visc)
{
  for(int p2=pini;p2<pfin;p2++){
    double drx,dry,drz;
    float pressp2;
    KerGetParticlesDr<psimple> (p2,posxy,posz,pospress,posdp1,posp1,drx,dry,drz,pressp2);
    pressp2=velrhop[p2].w;
    double rr2=drx*drx+dry*dry+drz*drz;
    if(rr2<=CTE.fourh2 && rr2>=ALMOSTZERO){
      //-Wendland kernel.
      double frx,fry,frz;
      KerGetKernel(rr2,drx,dry,drz,frx,fry,frz);

      //-Obtiene masa de particula p2 en caso de existir floatings.
	  //-Obtains mass of particle p2 if any floating bodies exist.
      //bool ftp2;         //-Indica si es floating. //-indicates if it is floating.
      //float ftmassp2;    //-Contiene masa de particula floating o massp2 si es bound o fluid. //-Contains mass of floating body or massf if fluid.
      bool compute=true; //-Se desactiva cuando se usa DEM y es float-float o float-bound. //-Deactivated when DEM is used and is float-float or float-bound.
     /* if(USE_FLOATING){
        const word cod=code[p2];
        ftp2=(CODE_GetType(cod)==CODE_TYPE_FLOATING);
        ftmassp2=(ftp2? ftomassp[CODE_GetTypeValue(cod)]: massp2);
        if(ftp2 && (tdelta==DELTA_Dynamic || tdelta==DELTA_DynamicExt))deltap1=FLT_MAX;
        if(ftp2 && shift && tshifting==SHIFT_NoBound)shiftposp1.x=FLT_MAX; //-Con floatings anula shifting. //-Cancels shifting with floating bodies
        compute=!(USE_DEM && ftp1 && (boundp2 || ftp2)); //-Se desactiva cuando se usa DEM y es float-float o float-bound. //-Deactivated when DEM is used and is float-float or float-bound.
      }*/

      //const float4 velrhop2=velrhop[p2];

	  
      //===== Aceleration ===== 
      if(compute){
		    const double volumep2=massp2/CTE.rhopzero; //Volume of particle j
        const double temp_x=frx*dwxcorrg[p1].x+frz*dwzcorrg[p1].x; 
			  const double temp_z=frx*dwxcorrg[p1].z+frz*dwzcorrg[p1].z; 
        const double temp=volumep2*(pressp2-pressp1);
        acep1.x+=temp*temp_x; acep1.y+=temp*fry; acep1.z+=temp*temp_z;
      }
    }
  }
}

//------------------------------------------------------------------------------
/// ES:
/// Realiza interaccion entre particulas. Fluid/Float-Fluid/Float or Fluid/Float-Bound
/// Incluye visco artificial/laminar y floatings normales/dem.
/// EN:
/// Interaction between particles. Fluid/Float-Fluid/Float or Fluid/Float-Bound.
/// Includes artificial/laminar viscosity and normal/DEM floating bodies.
//------------------------------------------------------------------------------
template<bool psimple,TpFtMode ftmode> __global__ void KerInteractionForcesFluid
  (TpInter tinter,unsigned n,unsigned pinit,int hdiv,uint4 nc,unsigned cellfluid,float viscob,float viscof
  ,const int2 *begincell,int3 cellzero,const unsigned *dcell
  ,const float *ftomassp,const float2 *tauff,float2 *gradvelff
  ,const double2 *posxy,const double *posz,const float4 *pospress,const float4 *velrhop,const word *code,const unsigned *idp
  ,double3 *dwxcorrg,double3 *dwzcorrg,float *viscdt,float *ar,double3 *ace)
{
  unsigned p=blockIdx.y*gridDim.x*blockDim.x + blockIdx.x*blockDim.x + threadIdx.x; //-Nº de la partícula //-NI of the particle
  if(p<n){
    unsigned p1=p+pinit;      //-Nº de particula. //-NI of particle
    float visc=0,arp1=0; //deltap1=0;
    double3 acep1=make_double3(0,0,0);

    //-Vars para Shifting.
	//-Variables for Shifting.
    //float3 shiftposp1;
   /* if(shift){
      shiftposp1=make_float3(0,0,0);
      shiftdetectp1=0;
    }*/

    //-Obtiene datos de particula p1 en caso de existir floatings.
	//-Obtains data of particle p1 in case there are floating bodies.
    bool ftp1;       //-Indica si es floating. //-Indicates if it is floating.
    float ftmassp1;  //-Contiene masa de particula floating o 1.0f si es fluid. //-Contains floating particle mass or 1.0f if it is fluid.
    if(USE_FLOATING){
      const word cod=code[p1];
      ftp1=(CODE_GetType(cod)==CODE_TYPE_FLOATING);
      ftmassp1=(ftp1? ftomassp[CODE_GetTypeValue(cod)]: 1.f);
      //if(ftp1 && (tdelta==DELTA_Dynamic || tdelta==DELTA_DynamicExt))deltap1=FLT_MAX;
      //if(ftp1 && shift)shiftposp1.x=FLT_MAX;  //-Para floatings no se calcula shifting. //-Shifting is not calculated for floating bodies.
    }

    //-Obtiene datos basicos de particula p1.
	//-Obtains basic data of particle p1.
    double3 posdp1;
    float3 posp1,velp1;
    float rhopp1,pressp1;
    KerGetParticleData<psimple>(p1,posxy,posz,pospress,velrhop,velp1,rhopp1,posdp1,posp1,pressp1);
    pressp1=velrhop[p1].w;
    //-Vars para Laminar+SPS
	//-Variables for Laminar+SPS
    float2 taup1_xx_xy,taup1_xz_yy,taup1_yz_zz;
    /*if(lamsps){
      taup1_xx_xy=tauff[p1*3];
      taup1_xz_yy=tauff[p1*3+1];
      taup1_yz_zz=tauff[p1*3+2];
    }*/
    //-Vars para Laminar+SPS (calculo).
	//-Variables for Laminar+SPS (computation).
    float2 grap1_xx_xy,grap1_xz_yy,grap1_yz_zz;
    /*if(lamsps){
      grap1_xx_xy=make_float2(0,0);
      grap1_xz_yy=make_float2(0,0);
      grap1_yz_zz=make_float2(0,0);
    }*/

    //-Obtiene limites de interaccion
	//-Obtains interaction limits
    int cxini,cxfin,yini,yfin,zini,zfin;
    KerGetInteractionCells(dcell[p1],hdiv,nc,cellzero,cxini,cxfin,yini,yfin,zini,zfin);

    //-Interaccion con Fluidas.
	//-Interaction with fluids.
    for(int z=zini;z<zfin;z++){
      int zmod=(nc.w)*z+cellfluid; //-Le suma donde empiezan las celdas de fluido. //-The sum showing where fluid cells start
      for(int y=yini;y<yfin;y++){
        int ymod=zmod+nc.x*y;
        unsigned pini,pfin=0;
        for(int x=cxini;x<cxfin;x++){
          int2 cbeg=begincell[x+ymod];
          if(cbeg.y){
            if(!pfin)pini=cbeg.x;
            pfin=cbeg.y;
          }
        }
        if(pfin){
		  if(tinter==1)KerInteractionForcesFluidVisc<psimple,ftmode> (false,p1,pini,pfin,viscof,ftomassp,tauff,posxy,posz,pospress,velrhop,code,idp,CTE.massf,ftmassp1,ftp1,posdp1,posp1,velp1,pressp1,rhopp1,taup1_xx_xy,taup1_xz_yy,taup1_yz_zz,grap1_xx_xy,grap1_xz_yy,grap1_yz_zz,acep1,arp1,visc);
		  else if(tinter==2) KerInteractionForcesFluidPresGrad<psimple,ftmode> (false,p1,pini,pfin,viscof,ftomassp,tauff,posxy,posz,pospress,velrhop,code,idp,dwxcorrg,dwzcorrg,CTE.massf,ftmassp1,ftp1,posdp1,posp1,velp1,pressp1,rhopp1,taup1_xx_xy,taup1_xz_yy,taup1_yz_zz,grap1_xx_xy,grap1_xz_yy,grap1_yz_zz,acep1,arp1,visc);
		}
	  }
    }

    if(acep1.x||acep1.y||acep1.z){
      double3 r=ace[p1]; 
      if(tinter==1){ r.x+=acep1.x; r.y+=acep1.y; r.z+=acep1.z;} 
	    if(tinter==2){ const float rho0=CTE.rhopzero; r.x+=(acep1.x/rho0); r.y+=(acep1.y/rho0); r.z+=(acep1.z/rho0);}
      ace[p1]=r;
      acep1=make_double3(0,0,0);
    }

    //-Interaccion con contorno.
	//-Interaction with boundaries.
    for(int z=zini;z<zfin;z++){
      int zmod=(nc.w)*z;
      for(int y=yini;y<yfin;y++){
        int ymod=zmod+nc.x*y;
        unsigned pini,pfin=0;
        for(int x=cxini;x<cxfin;x++){
          int2 cbeg=begincell[x+ymod];
          if(cbeg.y){
            if(!pfin)pini=cbeg.x;
            pfin=cbeg.y;
          }
        }
        if(pfin){
		  if(tinter==1)KerInteractionForcesFluidVisc<psimple,ftmode> (true ,p1,pini,pfin,viscob,ftomassp,tauff,posxy,posz,pospress,velrhop,code,idp,CTE.massb,ftmassp1,ftp1,posdp1,posp1,velp1,pressp1,rhopp1,taup1_xx_xy,taup1_xz_yy,taup1_yz_zz,grap1_xx_xy,grap1_xz_yy,grap1_yz_zz,acep1,arp1,visc);
		  else if(tinter==2) KerInteractionForcesFluidPresGrad<psimple,ftmode> (true ,p1,pini,pfin,viscob,ftomassp,tauff,posxy,posz,pospress,velrhop,code,idp,dwxcorrg,dwzcorrg,CTE.massb,ftmassp1,ftp1,posdp1,posp1,velp1,pressp1,rhopp1,taup1_xx_xy,taup1_xz_yy,taup1_yz_zz,grap1_xx_xy,grap1_xz_yy,grap1_yz_zz,acep1,arp1,visc);
		}
      }
    }
    //-Almacena resultados.
	//-Stores results.
    if(acep1.x||acep1.y||acep1.z){
      /*if(tdelta==DELTA_Dynamic&&deltap1!=FLT_MAX)arp1+=deltap1;
      if(tdelta==DELTA_DynamicExt){
        float rdelta=delta[p1];
        delta[p1]=(rdelta==FLT_MAX||deltap1==FLT_MAX? FLT_MAX: rdelta+deltap1);
      }*/
      //ar[p1]+=arp1;
      double3 r=ace[p1]; 
      if(tinter==1){ r.x+=acep1.x; r.y+=acep1.y; r.z+=acep1.z;} 
	    if(tinter==2){ const float rho0=CTE.rhopzero; r.x+=(acep1.x/rho0); r.y+=(acep1.y/rho0); r.z+=(acep1.z/rho0);}
      ace[p1]=r;
      /*if(visc>viscdt[p1])viscdt[p1]=visc;
      if(lamsps){
        gradvelff[p1*3]=grap1_xx_xy;
        gradvelff[p1*3+1]=grap1_xz_yy;
        gradvelff[p1*3+2]=grap1_yz_zz;
      }
      if(shift){
        shiftpos[p1]=shiftposp1;
        if(shiftdetect)shiftdetect[p1]=shiftdetectp1;
      }*/
    }
  }
}

//==============================================================================
/// Interaccion para el calculo de fuerzas.
/// Interaction for the force computation.
//==============================================================================
template<bool psimple,TpFtMode ftmode> void Interaction_ForcesT
  (TpCellMode cellmode,float viscob,float viscof,unsigned bsbound,unsigned bsfluid
  ,TpInter tinter,unsigned np,unsigned npb,unsigned npbok,tuint3 ncells
  ,const int2 *begincell,tuint3 cellmin,const unsigned *dcell
  ,const double2 *posxy,const double *posz,const float4 *pospress
  ,float4 *velrhop,const word *code,const unsigned *idp,double3 *dwxcorrg,double3 *dwzcorrg
  ,const float *ftomassp,const tsymatrix3f *tau,tsymatrix3f *gradvel
  ,float *viscdt,float* ar,double3 *ace,bool simulate2d)
{
  const unsigned npf=np-npb;
  const int hdiv=(cellmode==CELLMODE_H? 2: 1);
  const uint4 nc=make_uint4(ncells.x,ncells.y,ncells.z,ncells.x*ncells.y);
  const unsigned cellfluid=nc.w*nc.z+1;
  const int3 cellzero=make_int3(cellmin.x,cellmin.y,cellmin.z);

 if(tinter==1&&npbok){
    dim3 sgridb=GetGridSize(npbok,bsbound);
    KerInteractionForcesBound<psimple,ftmode> <<<sgridb,bsbound>>> (npbok,hdiv,nc,begincell,cellzero,dcell,ftomassp,posxy,posz,pospress,velrhop,code,idp,viscdt,ar);
  }
  //-Interaccion Fluid-Fluid & Fluid-Bound
  //-Interaction Fluid-Fluid & Fluid-Bound
  if(npf){
    dim3 sgridf=GetGridSize(npf,bsfluid);
    KerInteractionForcesFluid<psimple,ftmode> <<<sgridf,bsfluid>>> (tinter,npf,npb,hdiv,nc,cellfluid,viscob,viscof,begincell,cellzero,dcell,ftomassp,(const float2*)tau,(float2*)gradvel,posxy,posz,pospress,velrhop,code,idp,dwxcorrg,dwzcorrg,viscdt,ar,ace);
  }
}
//==============================================================================
/*template<bool psimple,TpFtMode ftmode,bool lamsps> void Interaction_Forces_t2(TpDeltaSph tdelta,TpCellMode cellmode
  ,float viscob,float viscof,unsigned bsbound,unsigned bsfluid
  ,TpInter tinter,unsigned np,unsigned npb,unsigned npbok,tuint3 ncells
  ,const int2 *begincell,tuint3 cellmin,const unsigned *dcell
  ,const double2 *posxy,const double *posz,const float4 *pospress
  ,float4 *velrhop,const word *code,const unsigned *idp,float3 *dwxcorrg,float3 *dwzcorrg
  ,const float *ftomassp,const tsymatrix3f *tau,tsymatrix3f *gradvel
  ,float *viscdt,float* ar,float3 *ace,float *delta
  ,TpShifting tshifting,float3 *shiftpos,bool simulate2d)
{
  if(tshifting){                const bool shift=true;
    if(tdelta==DELTA_None)      Interaction_ForcesT<psimple,ftmode,lamsps,DELTA_None,shift>       (cellmode,viscob,viscof,bsbound,bsfluid,tinter,np,npb,npbok,ncells,begincell,cellmin,dcell,posxy,posz,pospress,velrhop,code,idp,dwxcorrg,dwzcorrg,ftomassp,tau,gradvel,viscdt,ar,ace,delta,tshifting,shiftpos,simulate2d);
    if(tdelta==DELTA_Dynamic)   Interaction_ForcesT<psimple,ftmode,lamsps,DELTA_Dynamic,shift>    (cellmode,viscob,viscof,bsbound,bsfluid,tinter,np,npb,npbok,ncells,begincell,cellmin,dcell,posxy,posz,pospress,velrhop,code,idp,dwxcorrg,dwzcorrg,ftomassp,tau,gradvel,viscdt,ar,ace,delta,tshifting,shiftpos,simulate2d);
    if(tdelta==DELTA_DynamicExt)Interaction_ForcesT<psimple,ftmode,lamsps,DELTA_DynamicExt,shift> (cellmode,viscob,viscof,bsbound,bsfluid,tinter,np,npb,npbok,ncells,begincell,cellmin,dcell,posxy,posz,pospress,velrhop,code,idp,dwxcorrg,dwzcorrg,ftomassp,tau,gradvel,viscdt,ar,ace,delta,tshifting,shiftpos,simulate2d);
  }
  else{                         const bool shift=false;
    if(tdelta==DELTA_None)      Interaction_ForcesT<psimple,ftmode,lamsps,DELTA_None,shift>       (cellmode,viscob,viscof,bsbound,bsfluid,tinter,np,npb,npbok,ncells,begincell,cellmin,dcell,posxy,posz,pospress,velrhop,code,idp,dwxcorrg,dwzcorrg,ftomassp,tau,gradvel,viscdt,ar,ace,delta,tshifting,shiftpos,simulate2d);
    if(tdelta==DELTA_Dynamic)   Interaction_ForcesT<psimple,ftmode,lamsps,DELTA_Dynamic,shift>    (cellmode,viscob,viscof,bsbound,bsfluid,tinter,np,npb,npbok,ncells,begincell,cellmin,dcell,posxy,posz,pospress,velrhop,code,idp,dwxcorrg,dwzcorrg,ftomassp,tau,gradvel,viscdt,ar,ace,delta,tshifting,shiftpos,simulate2d);
    if(tdelta==DELTA_DynamicExt)Interaction_ForcesT<psimple,ftmode,lamsps,DELTA_DynamicExt,shift> (cellmode,viscob,viscof,bsbound,bsfluid,tinter,np,npb,npbok,ncells,begincell,cellmin,dcell,posxy,posz,pospress,velrhop,code,idp,dwxcorrg,dwzcorrg,ftomassp,tau,gradvel,viscdt,ar,ace,delta,tshifting,shiftpos,simulate2d);
  }
}
//==============================================================================
template<bool psimple,TpFtMode ftmode> void Interaction_Forces_t1(bool lamsps,TpDeltaSph tdelta,TpCellMode cellmode
  ,float viscob,float viscof,unsigned bsbound,unsigned bsfluid
  ,TpInter tinter,unsigned np,unsigned npb,unsigned npbok,tuint3 ncells
  ,const int2 *begincell,tuint3 cellmin,const unsigned *dcell
  ,const double2 *posxy,const double *posz,const float4 *pospress
  ,float4 *velrhop,const word *code,const unsigned *idp,float3 *dwxcorrg,float3 *dwzcorrg
  ,const float *ftomassp,const tsymatrix3f *tau,tsymatrix3f *gradvel
  ,float *viscdt,float* ar,float3 *ace,float *delta
  ,TpShifting tshifting,float3 *shiftpos,bool simulate2d)
{
  if(lamsps)Interaction_Forces_t2<psimple,ftmode,true>  (tdelta,cellmode,viscob,viscof,bsbound,bsfluid,tinter,np,npb,npbok,ncells,begincell,cellmin,dcell,posxy,posz,pospress,velrhop,code,idp,dwxcorrg,dwzcorrg,ftomassp,tau,gradvel,viscdt,ar,ace,delta,tshifting,shiftpos,simulate2d);
  else      Interaction_Forces_t2<psimple,ftmode,false> (tdelta,cellmode,viscob,viscof,bsbound,bsfluid,tinter,np,npb,npbok,ncells,begincell,cellmin,dcell,posxy,posz,pospress,velrhop,code,idp,dwxcorrg,dwzcorrg,ftomassp,tau,gradvel,viscdt,ar,ace,delta,tshifting,shiftpos,simulate2d);
}*/
//==============================================================================
void Interaction_Forces(bool psimple,bool floating,bool usedem,TpCellMode cellmode
  ,float viscob,float viscof,unsigned bsbound,unsigned bsfluid
  ,TpInter tinter,unsigned np,unsigned npb,unsigned npbok,tuint3 ncells
  ,const int2 *begincell,tuint3 cellmin,const unsigned *dcell
  ,const double2 *posxy,const double *posz,const float4 *pospress
  ,float4 *velrhop,const word *code,const unsigned *idp,double3 *dwxcorrg,double3 *dwzcorrg
  ,const float *ftomassp,const tsymatrix3f *tau,tsymatrix3f *gradvel
  ,float *viscdt,float *ar,double3 *ace,bool simulate2d)
{
  if(psimple){      const bool psimple=true;
    if(!floating)   Interaction_ForcesT<psimple,FTMODE_None> (cellmode,viscob,viscof,bsbound,bsfluid,tinter,np,npb,npbok,ncells,begincell,cellmin,dcell,posxy,posz,pospress,velrhop,code,idp,dwxcorrg,dwzcorrg,ftomassp,tau,gradvel,viscdt,ar,ace,simulate2d);
    else if(!usedem)Interaction_ForcesT<psimple,FTMODE_Sph>  (cellmode,viscob,viscof,bsbound,bsfluid,tinter,np,npb,npbok,ncells,begincell,cellmin,dcell,posxy,posz,pospress,velrhop,code,idp,dwxcorrg,dwzcorrg,ftomassp,tau,gradvel,viscdt,ar,ace,simulate2d);
    else            Interaction_ForcesT<psimple,FTMODE_Dem>  (cellmode,viscob,viscof,bsbound,bsfluid,tinter,np,npb,npbok,ncells,begincell,cellmin,dcell,posxy,posz,pospress,velrhop,code,idp,dwxcorrg,dwzcorrg,ftomassp,tau,gradvel,viscdt,ar,ace,simulate2d);
  }else{            const bool psimple=false;
    if(!floating)   Interaction_ForcesT<psimple,FTMODE_None> (cellmode,viscob,viscof,bsbound,bsfluid,tinter,np,npb,npbok,ncells,begincell,cellmin,dcell,posxy,posz,pospress,velrhop,code,idp,dwxcorrg,dwzcorrg,ftomassp,tau,gradvel,viscdt,ar,ace,simulate2d);
    else if(!usedem)Interaction_ForcesT<psimple,FTMODE_Sph>  (cellmode,viscob,viscof,bsbound,bsfluid,tinter,np,npb,npbok,ncells,begincell,cellmin,dcell,posxy,posz,pospress,velrhop,code,idp,dwxcorrg,dwzcorrg,ftomassp,tau,gradvel,viscdt,ar,ace,simulate2d);
    else            Interaction_ForcesT<psimple,FTMODE_Dem>  (cellmode,viscob,viscof,bsbound,bsfluid,tinter,np,npb,npbok,ncells,begincell,cellmin,dcell,posxy,posz,pospress,velrhop,code,idp,dwxcorrg,dwzcorrg,ftomassp,tau,gradvel,viscdt,ar,ace,simulate2d);
  }
}

//##############################################################################
//# Kernels para Ren correction.
//# Kernels for the Ren correction.
//##############################################################################
//------------------------------------------------------------------------------
/// Realiza la interaccion de una particula con un conjunto de ellas. Bound-Fluid/Float
/// Interaction of a particle with a set of particles (Bound-Fluid/Float).
//------------------------------------------------------------------------------
/*template<bool psimple,TpFtMode ftmode> __device__ void KerInteractionRenBoundBox
  (unsigned p1,const unsigned &pini,const unsigned &pfin
  ,const double2 *posxy,const double *posz,const float4 *pospress
  ,const float4 *velrhop,const word *code,const unsigned* idp
  ,const float *ftomassp,float3 gravity
  ,float massf,double3 posdp1,float3 posp1,float &pkfap1,float &pkfbp1)
{
  for(int p2=pini;p2<pfin;p2++){
    double drx,dry,drz;
    float pressp2;
    KerGetParticlesDr<psimple>(p2,posxy,posz,pospress,posdp1,posp1,drx,dry,drz,pressp2);

    float rr2=drx*drx+dry*dry+drz*drz;
    if(rr2<=CTE.fourh2 && rr2>=ALMOSTZERO){
      //-Wendland kernel
      const float wab=KerGetKernelWab(rr2);

      //===== Obtiene datos de particula p2 ===== 
	  //===== Obtains particle p2 data =====
      const float rhopp2=velrhop[p2].w;
      if(!psimple)pressp2=(CTE.cteb*(powf(rhopp2*CTE.ovrhopzero,CTE.gamma)-1.0f));
      float ftmassp2;    //-Contiene masa de particula floating o massf si es fluid. //-Contains mass of floating particle or massf if it is fluid.
      if(USE_FLOATING){
        const word cod=code[p2];
        bool ftp2=(CODE_GetType(cod)==CODE_TYPE_FLOATING);
        ftmassp2=(ftp2? ftomassp[CODE_GetTypeValue(cod)]: massf);
      }

      //-Acumula numerador y denominador para calculo de Pkf.
	  //-Sums numerator and denominator for the Pkf computation.
      const float pkf=((USE_FLOATING? ftmassp2: massf)/rhopp2)*wab;
      pkfap1+=pkf*(pressp2+rhopp2*gravity.z*drz); //<--La gravedad debe aplicarse de forma general... //<--Gravity must apply in general form... !!ASKJOSE!!!
      pkfbp1+=pkf;
    }
  }
}

//------------------------------------------------------------------------------
/// Realiza interaccion entre particulas para Ren correction. Bound-Fluid/Float
/// Interaction between particles for the Ren correction. Bound-Fluid/Float
//------------------------------------------------------------------------------
template<bool psimple,TpFtMode ftmode> __global__ void KerInteractionRenBound
  (unsigned n,int hdiv,uint4 nc,const int2 *begincell,int3 cellzero,const unsigned *dcell
  ,const double2 *posxy,const double *posz,const float4 *pospress
  ,const float4 *velrhop,const word *code,const unsigned *idp
  ,const float *ftomassp,float3 gravity,float *presskf)
{
  unsigned p1=blockIdx.y*gridDim.x*blockDim.x + blockIdx.x*blockDim.x + threadIdx.x; //-Nº de la partícula //-NI of the particle.
  if(p1<n){
    float pkfap1=0,pkfbp1=0;

    //-Carga datos de particula p1.
	//-Loads particle p1 data.
    double3 posdp1;
    float3 posp1;
    KerGetParticleData<psimple>(p1,posxy,posz,pospress,posdp1,posp1);

    //-Obtiene limites de interaccion
	//-Obtains interaction limits.
    int cxini,cxfin,yini,yfin,zini,zfin;
    KerGetInteractionCells(dcell[p1],hdiv,nc,cellzero,cxini,cxfin,yini,yfin,zini,zfin);
    //-Interaccion de Contorno con Fluidas.
	//-Interaction of boundaries with fluids.
    for(int z=zini;z<zfin;z++){
      int zmod=(nc.w)*z+(nc.w*nc.z+1);//-Le suma Nct+1 que es la primera celda de fluido. //-Adds Nct+1 which is the first cell fluid.
      for(int y=yini;y<yfin;y++){
        int ymod=zmod+nc.x*y;
        unsigned pini,pfin=0;
        for(int x=cxini;x<cxfin;x++){
          int2 cbeg=begincell[x+ymod];
          if(cbeg.y){
            if(!pfin)pini=cbeg.x;
            pfin=cbeg.y;
          }
        }
        if(pfin)KerInteractionRenBoundBox<psimple,ftmode> (p1,pini,pfin,posxy,posz,pospress,velrhop,code,idp,ftomassp,gravity,CTE.massf,posdp1,posp1,pkfap1,pkfbp1);
      }
    }
    //-Almacena resultados.
	//-Stores results.
    presskf[p1]=(pkfbp1!=0? pkfap1/pkfbp1: 0); //<--Se deberia controlar cuando se aplica en función de las particulas de fluido que vea... //<--It should be controlled when applied according to the fluid particles you see...
  }
}

//==============================================================================
/// Realiza interaccion entre particulas para Ren correction. Bound-Fluid/Float
/// Interaction between particles for the Ren correction. Bound-Fluid/Float
//==============================================================================
void Interaction_Ren(bool psimple,bool floating,TpCellMode cellmode
  ,unsigned npbok,tuint3 ncells,const int2 *begincell,tuint3 cellmin,const unsigned *dcell
  ,const double2 *posxy,const double *posz,const float4 *pospress
  ,const float4 *velrhop,const word *code,const unsigned *idp
  ,const float *ftomassp,tfloat3 gravity,float *presskf)
{
  const int hdiv=(cellmode==CELLMODE_H? 2: 1);
  const uint4 nc=make_uint4(ncells.x,ncells.y,ncells.z,ncells.x*ncells.y);
  const int3 cellzero=make_int3(cellmin.x,cellmin.y,cellmin.z);
  if(npbok){
    const unsigned bsbound=SPHBSIZE;
    dim3 sgridb=GetGridSize(npbok,bsbound);
    if(psimple){      const bool psimple=true;
      if(!floating)   KerInteractionRenBound<psimple,FTMODE_None> <<<sgridb,bsbound>>> (npbok,hdiv,nc,begincell,cellzero,dcell,posxy,posz,pospress,velrhop,code,idp,ftomassp,Float3(gravity),presskf);
      else            KerInteractionRenBound<psimple,FTMODE_Sph>  <<<sgridb,bsbound>>> (npbok,hdiv,nc,begincell,cellzero,dcell,posxy,posz,pospress,velrhop,code,idp,ftomassp,Float3(gravity),presskf);
    }else{            const bool psimple=false;
      if(!floating)   KerInteractionRenBound<psimple,FTMODE_None> <<<sgridb,bsbound>>> (npbok,hdiv,nc,begincell,cellzero,dcell,posxy,posz,pospress,velrhop,code,idp,ftomassp,Float3(gravity),presskf);
      else            KerInteractionRenBound<psimple,FTMODE_Sph>  <<<sgridb,bsbound>>> (npbok,hdiv,nc,begincell,cellzero,dcell,posxy,posz,pospress,velrhop,code,idp,ftomassp,Float3(gravity),presskf);
    }
  }
}

//------------------------------------------------------------------------------
/// Calcula nuevo valor de presion y desidad aplicando Ren correction.
/// Computes new value by applying pressure and Ren density correction.
//------------------------------------------------------------------------------
template<bool psimple> __global__ void KerComputeRenPress(unsigned n
  ,float beta,const float *presskf,float4 *velrhop,float4 *pospress)
{
  unsigned p=blockIdx.y*gridDim.x*blockDim.x + blockIdx.x*blockDim.x + threadIdx.x; //-Nº de la partícula //-NI of the particle.
  if(p<n){
    const float pressp=(psimple? pospress[p].w: (CTE.cteb*(powf(velrhop[p].w*CTE.ovrhopzero,CTE.gamma)-1.0f)));
    const float pressc=beta*presskf[p]+(1.f-beta)*pressp;
    if(psimple)pospress[p].w=pressc;
    velrhop[p].w=CTE.rhopzero*pow(pressc/CTE.cteb+1.f,1.f/CTE.gamma);
  }
}

//==============================================================================
/// Calcula nuevo valor de presion y desidad aplicando Ren correction.
/// Computes new value by applying pressure and Ren density correction.
//==============================================================================
void ComputeRenPress(bool psimple,unsigned npbok
  ,float beta,const float *presskf,float4 *velrhop,float4 *pospress)
{
  if(npbok){
    dim3 sgrid=GetGridSize(npbok,SPHBSIZE);
    if(psimple)KerComputeRenPress<true>  <<<sgrid,SPHBSIZE>>> (npbok,beta,presskf,velrhop,pospress);
    else       KerComputeRenPress<false> <<<sgrid,SPHBSIZE>>> (npbok,beta,presskf,velrhop,pospress);
  }
}*/


//##############################################################################
//# Kernels para interaccion DEM.
//# Kernels for DEM interaction
//##########################################.####################################
//------------------------------------------------------------------------------
/// Realiza la interaccion DEM de una particula con un conjunto de ellas. (Float-Float/Bound)
/// DEM interaction of a particle with a set of particles (Float-Float/Bound).
//------------------------------------------------------------------------------
/*template<bool psimple> __device__ void KerInteractionForcesDemBox 
  (bool boundp2,const unsigned &pini,const unsigned &pfin
  ,const float4 *demdata,float dtforce
  ,const double2 *posxy,const double *posz,const float4 *pospress,const float4 *velrhop,const word *code,const unsigned *idp
  ,double3 posdp1,float3 posp1,float3 velp1,word tavp1,float masstotp1,float taup1,float kfricp1,float restitup1
  ,float3 &acep1,float &demdtp1)
{
  for(int p2=pini;p2<pfin;p2++){
    const word codep2=code[p2];
    if(CODE_GetType(codep2)!=CODE_TYPE_FLUID && tavp1!=CODE_GetTypeAndValue(codep2)){
      float drx,dry,drz;
      KerGetParticlesDr<psimple> (p2,posxy,posz,pospress,posdp1,posp1,drx,dry,drz);
      const float rr2=drx*drx+dry*dry+drz*drz;
      const float rad=sqrt(rr2);

      //-Calcula valor maximo de demdt.
	  //-Computes maximum value of demdt.
      float4 demdatap2=demdata[CODE_GetTypeAndValue(codep2)];
      const float nu_mass=(boundp2? masstotp1/2: masstotp1*demdatap2.x/(masstotp1+demdatap2.x)); //-Con boundary toma la propia masa del floating 1. //-With boundary takes the actual mass of floating 1.
      const float kn=4/(3*(taup1+demdatap2.y))*sqrt(CTE.dp/4);  //generalized rigidity - Lemieux 2008
      const float demvisc=float(PI)/(sqrt( kn/nu_mass ))*40.f;
      if(demdtp1<demvisc)demdtp1=demvisc;

      const float over_lap=1.0f*CTE.dp-rad; //-(ri+rj)-|dij|
      if(over_lap>0.0f){ //-Contact
        const float dvx=velp1.x-velrhop[p2].x, dvy=velp1.y-velrhop[p2].y, dvz=velp1.z-velrhop[p2].z; //vji
        const float nx=drx/rad, ny=dry/rad, nz=drz/rad; //normal_ji             
        const float vn=dvx*nx+dvy*ny+dvz*nz; //vji.nji    
        //normal                    
        const float eij=(restitup1+demdatap2.w)/2;
        const float gn=-(2.0f*log(eij)*sqrt(nu_mass*kn))/(sqrt(float(PI)+log(eij)*log(eij))); //generalized damping - Cummins 2010
        //const float gn=0.08f*sqrt(nu_mass*sqrt(CTE.dp/2)/((taup1+demdatap2.y)/2)); //generalized damping - Lemieux 2008
        float rep=kn*pow(over_lap,1.5f);
        float fn=rep-gn*pow(over_lap,0.25f)*vn;                   
        acep1.x+=(fn*nx); acep1.y+=(fn*ny); acep1.z+=(fn*nz); //-Force is applied in the normal between the particles
        //tangencial
        float dvxt=dvx-vn*nx, dvyt=dvy-vn*ny, dvzt=dvz-vn*nz; //Vji_t
        float vt=sqrt(dvxt*dvxt + dvyt*dvyt + dvzt*dvzt);
        float tx=(vt!=0? dvxt/vt: 0), ty=(vt!=0? dvyt/vt: 0), tz=(vt!=0? dvzt/vt: 0); //Tang vel unit vector
        float ft_elast=2*(kn*dtforce-gn)*vt/7;   //Elastic frictional string -->  ft_elast=2*(kn*fdispl-gn*vt)/7; fdispl=dtforce*vt;
        const float kfric_ij=(kfricp1+demdatap2.z)/2;
        float ft=kfric_ij*fn*tanh(8*vt);  //Coulomb
        ft=(ft<ft_elast? ft: ft_elast);   //not above yield criteria, visco-elastic model
        acep1.x+=(ft*tx); acep1.y+=(ft*ty); acep1.z+=(ft*tz);
      }
    }
  }
}

//------------------------------------------------------------------------------
/// ES:
/// Realiza interaccion entre particulas. Fluid/Float-Fluid/Float or Fluid/Float-Bound
/// Incluye visco artificial/laminar y floatings normales/dem.
/// - EN:
/// Interaction between particles. Fluid/Float-Fluid/Float or Fluid/Float-Bound.
/// Includes artificial/laminar viscosity and normal/DEM floating bodies.
//------------------------------------------------------------------------------
template<bool psimple> __global__ void KerInteractionForcesDem
  (unsigned nfloat,int hdiv,uint4 nc,unsigned cellfluid
  ,const int2 *begincell,int3 cellzero,const unsigned *dcell
  ,const unsigned *ftridp,const float4 *demdata,float dtforce
  ,const double2 *posxy,const double *posz,const float4 *pospress,const float4 *velrhop,const word *code,const unsigned *idp
  ,float *viscdt,float3 *ace)
{
  unsigned p=blockIdx.y*gridDim.x*blockDim.x + blockIdx.x*blockDim.x + threadIdx.x; //-Nº de la partícula //-NI of the particle
  if(p<nfloat){
    const unsigned p1=ftridp[p];      //-Nº de particula. //-NI of the particle
    if(p1!=UINT_MAX){
      float demdtp1=0;
      float3 acep1=make_float3(0,0,0);

      //-Obtiene datos basicos de particula p1.
	  //-Obtains basic data of particle p1.
      double3 posdp1;
      float3 posp1,velp1;
      KerGetParticleData<psimple>(p1,posxy,posz,pospress,velrhop,velp1,posdp1,posp1);
      const word tavp1=CODE_GetTypeAndValue(code[p1]);
      float4 rdata=demdata[tavp1];
      const float masstotp1=rdata.x;
      const float taup1=rdata.y;
      const float kfricp1=rdata.z;
      const float restitup1=rdata.w;

      //-Obtiene limites de interaccion
	  //-Obtains interaction limits
      int cxini,cxfin,yini,yfin,zini,zfin;
      KerGetInteractionCells(dcell[p1],hdiv,nc,cellzero,cxini,cxfin,yini,yfin,zini,zfin);

      //-Interaccion con contorno.
	  //-Interaction with boundaries.
      for(int z=zini;z<zfin;z++){
        int zmod=(nc.w)*z;
        for(int y=yini;y<yfin;y++){
          int ymod=zmod+nc.x*y;
          unsigned pini,pfin=0;
          for(int x=cxini;x<cxfin;x++){
            int2 cbeg=begincell[x+ymod];
            if(cbeg.y){
              if(!pfin)pini=cbeg.x;
              pfin=cbeg.y;
            }
          }
          if(pfin)KerInteractionForcesDemBox<psimple> (true ,pini,pfin,demdata,dtforce,posxy,posz,pospress,velrhop,code,idp,posdp1,posp1,velp1,tavp1,masstotp1,taup1,kfricp1,restitup1,acep1,demdtp1);
        }
      }

      //-Interaccion con Fluidas.
	  //-Interaction with fluids.
      for(int z=zini;z<zfin;z++){
        int zmod=(nc.w)*z+cellfluid; //-Le suma donde empiezan las celdas de fluido. //-The sum showing where fluid cells start
        for(int y=yini;y<yfin;y++){
          int ymod=zmod+nc.x*y;
          unsigned pini,pfin=0;
          for(int x=cxini;x<cxfin;x++){
            int2 cbeg=begincell[x+ymod];
            if(cbeg.y){
              if(!pfin)pini=cbeg.x;
              pfin=cbeg.y;
            }
          }
          if(pfin)KerInteractionForcesDemBox<psimple> (false,pini,pfin,demdata,dtforce,posxy,posz,pospress,velrhop,code,idp,posdp1,posp1,velp1,tavp1,masstotp1,taup1,kfricp1,restitup1,acep1,demdtp1);
        }
      }
      //-Almacena resultados.
	  //-Stores results.
      if(acep1.x || acep1.y || acep1.z || demdtp1){
        float3 r=ace[p1]; r.x+=acep1.x; r.y+=acep1.y; r.z+=acep1.z; ace[p1]=r;
        if(viscdt[p1]<demdtp1)viscdt[p1]=demdtp1;
      }
    }
  }
}

//==============================================================================
/// Interaccion para el calculo de fuerzas.
/// Interaction for the force computation.
//==============================================================================
template<bool psimple> void Interaction_ForcesDemT
  (TpCellMode cellmode,unsigned bsize
  ,unsigned nfloat,tuint3 ncells,const int2 *begincell,tuint3 cellmin,const unsigned *dcell
  ,const unsigned *ftridp,const float4 *demdata,float dtforce
  ,const double2 *posxy,const double *posz,const float4 *pospress,const float4 *velrhop
  ,const word *code,const unsigned *idp,float *viscdt,float3 *ace)
{
  const int hdiv=(cellmode==CELLMODE_H? 2: 1);
  const uint4 nc=make_uint4(ncells.x,ncells.y,ncells.z,ncells.x*ncells.y);
  const unsigned cellfluid=nc.w*nc.z+1;
  const int3 cellzero=make_int3(cellmin.x,cellmin.y,cellmin.z);
  //-Interaccion Fluid-Fluid & Fluid-Bound
  //-Interaction Fluid-Fluid & Fluid-Bound
  if(nfloat){
    dim3 sgrid=GetGridSize(nfloat,bsize);
    KerInteractionForcesDem<psimple> <<<sgrid,bsize>>> (nfloat,hdiv,nc,cellfluid,begincell,cellzero,dcell,ftridp,demdata,dtforce,posxy,posz,pospress,velrhop,code,idp,viscdt,ace);
  }
}
//==============================================================================
void Interaction_ForcesDem(bool psimple,TpCellMode cellmode,unsigned bsize
  ,unsigned nfloat,tuint3 ncells,const int2 *begincell,tuint3 cellmin,const unsigned *dcell
  ,const unsigned *ftridp,const float4 *demdata,float dtforce
  ,const double2 *posxy,const double *posz,const float4 *pospress,const float4 *velrhop
  ,const word *code,const unsigned *idp,float *viscdt,float3 *ace)
{
  if(psimple)Interaction_ForcesDemT<true>  (cellmode,bsize,nfloat,ncells,begincell,cellmin,dcell,ftridp,demdata,dtforce,posxy,posz,pospress,velrhop,code,idp,viscdt,ace);
  else       Interaction_ForcesDemT<false> (cellmode,bsize,nfloat,ncells,begincell,cellmin,dcell,ftridp,demdata,dtforce,posxy,posz,pospress,velrhop,code,idp,viscdt,ace);
}*/


/*//##############################################################################
//# Kernels para Laminar+SPS.
//##############################################################################
//------------------------------------------------------------------------------
/// Computes sub-particle stress tensor (Tau) for SPS turbulence model.
//------------------------------------------------------------------------------
__global__ void KerComputeSpsTau(unsigned n,unsigned pini,float smag,float blin
  ,const float4 *velrhop,const float2 *gradvelff,float2 *tauff)
{
  unsigned p=blockIdx.y*gridDim.x*blockDim.x + blockIdx.x*blockDim.x + threadIdx.x; 
  if(p<n){
    const unsigned p1=p+pini;
    float2 rr=gradvelff[p1*3];   const float grad_xx=rr.x,grad_xy=rr.y;
           rr=gradvelff[p1*3+1]; const float grad_xz=rr.x,grad_yy=rr.y;
           rr=gradvelff[p1*3+2]; const float grad_yz=rr.x,grad_zz=rr.y;
    const float pow1=grad_xx*grad_xx + grad_yy*grad_yy + grad_zz*grad_zz;
    const float prr= grad_xy*grad_xy + grad_xz*grad_xz + grad_yz*grad_yz + pow1+pow1;
    const float visc_sps=smag*sqrt(prr);
    const float div_u=grad_xx+grad_yy+grad_zz;
    const float sps_k=(2.0f/3.0f)*visc_sps*div_u;
    const float sps_blin=blin*prr;
    const float sumsps=-(sps_k+sps_blin);
    const float twovisc_sps=(visc_sps+visc_sps);
    float one_rho2=1.0f/velrhop[p1].w;
    //-Calcula nuevos valores de tau[].
	//-Computes new values of tau[].
    const float tau_xx=one_rho2*(twovisc_sps*grad_xx +sumsps);
    const float tau_xy=one_rho2*(visc_sps   *grad_xy);
    tauff[p1*3]=make_float2(tau_xx,tau_xy);
    const float tau_xz=one_rho2*(visc_sps   *grad_xz);
    const float tau_yy=one_rho2*(twovisc_sps*grad_yy +sumsps);
    tauff[p1*3+1]=make_float2(tau_xz,tau_yy);
    const float tau_yz=one_rho2*(visc_sps   *grad_yz);
    const float tau_zz=one_rho2*(twovisc_sps*grad_zz +sumsps);
    tauff[p1*3+2]=make_float2(tau_yz,tau_zz);
  }
}

//==============================================================================
/// Computes sub-particle stress tensor (Tau) for SPS turbulence model.
//==============================================================================
void ComputeSpsTau(unsigned np,unsigned npb,float smag,float blin
  ,const float4 *velrhop,const tsymatrix3f *gradvelg,tsymatrix3f *tau)
{
  const unsigned npf=np-npb;
  if(npf){
    dim3 sgridf=GetGridSize(npf,SPHBSIZE);
    KerComputeSpsTau <<<sgridf,SPHBSIZE>>> (npf,npb,smag,blin,velrhop,(const float2*)gradvelg,(float2*)tau);
  }
}*/


//##############################################################################
//# Kernels para Delta-SPH.
//# Kernels for Delta-SPH.
//##############################################################################
//------------------------------------------------------------------------------
/// Añade valor de delta[] a ar[] siempre que no sea FLT_MAX.
/// Adds value of delta[] to ar[] provided it is not FLT_MAX.
//------------------------------------------------------------------------------
__global__ void KerAddDelta(unsigned n,const float *delta,float *ar)
{
  unsigned p=blockIdx.y*gridDim.x*blockDim.x + blockIdx.x*blockDim.x + threadIdx.x; //-Nº de la partícula //-NI of the particle.
  if(p<n){
    float rdelta=delta[p];
    if(rdelta!=FLT_MAX)ar[p]+=rdelta;
  }
}

//==============================================================================
/// Añade valor de delta[] a ar[] siempre que no sea FLT_MAX.
/// Adds value of delta[] to ar[] provided it is not FLT_MAX.
//==============================================================================
void AddDelta(unsigned n,const float *delta,float *ar){
  if(n){
    dim3 sgrid=GetGridSize(n,SPHBSIZE);
    KerAddDelta <<<sgrid,SPHBSIZE>>> (n,delta,ar);
  }
}


//##############################################################################
//# Kernels para Shifting.
//# Shifting kernels.
//##############################################################################
//------------------------------------------------------------------------------
/// Calcula Shifting final para posicion de particulas.
/// Computes final shifting for the particle position.
//------------------------------------------------------------------------------
__global__ void KerRunShifting(unsigned n,unsigned pini,double dt
  ,float shiftcoef,double freesurface,double coeftfs
  ,float4 *velrhop,const double *divr,float3 *shiftpos,const double ShiftOffset)
{
  unsigned p=blockIdx.y*gridDim.x*blockDim.x + blockIdx.x*blockDim.x + threadIdx.x; //-Nº de la partícula //-NI of the particle.
  if(p<n){
    const unsigned p1=p+pini;
    //const float4 rvel=velrhop[p1];
    float3 rshiftpos=shiftpos[p1];
    //const double vx=double(rvel.x);
    //const double vy=double(rvel.y);
    //const double vz=double(rvel.z);
    double umagn=-shiftcoef*double(CTE.h)*double(CTE.h);//double(shiftcoef)*double(CTE.h)*sqrt(vx*vx+vy*vy+vz*vz)*dt;

    if(divr[p1]<freesurface){
      double NormX=-rshiftpos.x;
      double NormZ=-rshiftpos.z;
      double temp=NormX*NormX+NormZ*NormZ;
      temp=sqrt(temp);
      NormX=NormX/temp;
      NormZ=NormZ/temp;
      double TangX=-NormZ;
      double TangZ=NormX;
      temp=TangX*rshiftpos.x+TangZ*rshiftpos.z;
      rshiftpos.x=temp*TangX;
      rshiftpos.z=temp*TangZ;
      /*const float rdetect=shiftdetect[p1];
      if(rdetect<freesurface)umagn=0;
      else umagn*=(double(rdetect)-freesurface)/coeftfs;*/
    }

    if(divr[p1]>=freesurface && divr[p1]<=freesurface+ShiftOffset){
      double NormX=-rshiftpos.x;
      double NormZ=-rshiftpos.z;
      double temp=NormX*NormX+NormZ*NormZ;
      temp=sqrt(temp);
      NormX=NormX/temp;
      NormZ=NormZ/temp;
      double TangX=-NormZ;
      double TangZ=NormX;
      double temp_s=TangX*rshiftpos.x+TangZ*rshiftpos.z;
      double temp_n=NormX*rshiftpos.x+NormZ*rshiftpos.z;
      double FactorShift=0.5*(1-cos(PI*(divr[p1]-freesurface)/0.2));
      rshiftpos.x=temp_s*TangX+temp_n*NormX*FactorShift;
      rshiftpos.z=temp_s*TangZ+temp_n*NormZ*FactorShift;
      /*const float rdetect=shiftdetect[p1];
      if(rdetect<freesurface)umagn=0;
      else umagn*=(double(rdetect)-freesurface)/coeftfs;*/
    }
        
    rshiftpos.x=float(double(rshiftpos.x)*umagn);
    rshiftpos.y=float(double(rshiftpos.y)*umagn);
    rshiftpos.z=float(double(rshiftpos.z)*umagn);
    shiftpos[p1]=rshiftpos;
  }
}

//==============================================================================
/// Calcula Shifting final para posicion de particulas.
/// Computes final shifting for the particle position.
//==============================================================================
void RunShifting(unsigned np,unsigned npb,double dt
  ,double shiftcoef,double freesurface,double coeftfs
  ,float4 *velrhop,const double *divr,float3 *shiftpos)
{
  const unsigned npf=np-npb;
  const double ShiftOffset=0.2;
  if(npf){
    dim3 sgrid=GetGridSize(npf,SPHBSIZE);
    KerRunShifting <<<sgrid,SPHBSIZE>>> (npf,npb,dt,shiftcoef,freesurface,coeftfs,velrhop,divr,shiftpos,ShiftOffset);
  }
}


//##############################################################################
//# Kernels para ComputeStep (vel & rhop)
//# Kernels for ComputeStep (vel & rhop)
//##############################################################################
//------------------------------------------------------------------------------
/// ES:
/// Calcula nuevos valores de  Pos, Check, Vel y Rhop (usando Verlet).
/// El valor de Vel para bound siempre se pone a cero.
/// - EN:
/// Computes new values for Pos, Check, Vel and Ros (using Verlet).
/// The value of Vel always set to be reset.
//------------------------------------------------------------------------------
template<bool floating,bool shift> __global__ void KerComputeStepVerlet
  (unsigned n,unsigned npb,float rhopoutmin,float rhopoutmax
  ,const float4 *velrhop1,const float4 *velrhop2
  ,const float *ar,const float3 *ace,const float3 *shiftpos
  ,double dt,double dt205,double dt2
  ,double2 *movxy,double *movz,word *code,float4 *velrhopnew)
{
  unsigned p=blockIdx.y*gridDim.x*blockDim.x + blockIdx.x*blockDim.x + threadIdx.x; //-Nº de la partícula //-NI of the particle.
  if(p<n){
    if(p<npb){//-Particulas: Fixed & Moving //-Particles: Fixed & Moving
      float rrhop=float(double(velrhop2[p].w)+dt2*ar[p]);
      rrhop=(rrhop<CTE.rhopzero? CTE.rhopzero: rrhop); //-Evita q las boundary absorvan a las fluidas. //-To prevent absorption of fluid particles by boundaries.
      velrhopnew[p]=make_float4(0,0,0,rrhop);
    }
    else{ //-Particulas: Floating & Fluid //-Particles: Floating & Fluid
      //-Actualiza densidad.
	  //-Updates density.
      float4 rvelrhop2=velrhop2[p];
      rvelrhop2.w=float(double(rvelrhop2.w)+dt2*ar[p]);
      float4 rvel1=velrhop1[p];
      if(!floating || CODE_GetType(code[p])==CODE_TYPE_FLUID){//-Particulas: Fluid //-Particles: Fluid
        //-Comprueba limites de rhop.
		//-Checks rhop limits.
        if(rvelrhop2.w<rhopoutmin||rvelrhop2.w>rhopoutmax){//-Solo marca como excluidas las normales (no periodicas). //-Only brands as excluded normal particles (not periodic)
          const word rcode=code[p];
          if(CODE_GetSpecialValue(rcode)==CODE_NORMAL)code[p]=CODE_SetOutRhop(rcode);
        }
        //-Calcula y graba desplazamiento de posicion.
		//-Comutes and stores position displacement.
        const float3 race=ace[p];
        double dx=double(rvel1.x)*dt + double(race.x)*dt205;
        double dy=double(rvel1.y)*dt + double(race.y)*dt205;
        double dz=double(rvel1.z)*dt + double(race.z)*dt205;
        if(shift){
          const float3 rshiftpos=shiftpos[p];
          dx+=double(rshiftpos.x);
          dy+=double(rshiftpos.y);
          dz+=double(rshiftpos.z);
        }
        movxy[p]=make_double2(dx,dy);
        movz[p]=dz;
        //-Actualiza velocidad.
		//-Updates velocity.
        rvelrhop2.x=float(double(rvelrhop2.x)+double(race.x)*dt2);
        rvelrhop2.y=float(double(rvelrhop2.y)+double(race.y)*dt2);
        rvelrhop2.z=float(double(rvelrhop2.z)+double(race.z)*dt2);
        velrhopnew[p]=rvelrhop2;
      }
      else{//-Particulas: Floating //-Particles: Floating.
        rvel1.w=(rvelrhop2.w<CTE.rhopzero? CTE.rhopzero: rvelrhop2.w); //-Evita q las floating absorvan a las fluidas. //-To prevent absorption of fluid particles by boundaries.
        velrhopnew[p]=rvel1;
      }
    }
  }
}

//==============================================================================
/// Actualizacion de particulas segun fuerzas y dt usando Verlet.
/// Updates particles according to forces and dt using Verlet. 
//==============================================================================
void ComputeStepVerlet(bool floating,bool shift,unsigned np,unsigned npb
  ,const float4 *velrhop1,const float4 *velrhop2
  ,const float *ar,const float3 *ace,const float3 *shiftpos
  ,double dt,double dt2,float rhopoutmin,float rhopoutmax
  ,word *code,double2 *movxy,double *movz,float4 *velrhopnew)
{
  double dt205=(0.5*dt*dt);
  if(np){
    dim3 sgrid=GetGridSize(np,SPHBSIZE);
    if(shift){    const bool shift=true;
      if(floating)KerComputeStepVerlet<true,shift>  <<<sgrid,SPHBSIZE>>> (np,npb,rhopoutmin,rhopoutmax,velrhop1,velrhop2,ar,ace,shiftpos,dt,dt205,dt2,movxy,movz,code,velrhopnew);
      else        KerComputeStepVerlet<false,shift> <<<sgrid,SPHBSIZE>>> (np,npb,rhopoutmin,rhopoutmax,velrhop1,velrhop2,ar,ace,shiftpos,dt,dt205,dt2,movxy,movz,code,velrhopnew);
    }else{        const bool shift=false;
      if(floating)KerComputeStepVerlet<true,shift>  <<<sgrid,SPHBSIZE>>> (np,npb,rhopoutmin,rhopoutmax,velrhop1,velrhop2,ar,ace,shiftpos,dt,dt205,dt2,movxy,movz,code,velrhopnew);
      else        KerComputeStepVerlet<false,shift> <<<sgrid,SPHBSIZE>>> (np,npb,rhopoutmin,rhopoutmax,velrhop1,velrhop2,ar,ace,shiftpos,dt,dt205,dt2,movxy,movz,code,velrhopnew);
    }
  }
}

//------------------------------------------------------------------------------
/// Calcula los nuevos valores de Pos, Vel y Rhop (usando para Symplectic-Predictor)
/// Computes new values for Pos, Check, Vel and Ros (used with Symplectic-Predictor).
//------------------------------------------------------------------------------
template<bool floating> __global__ void KerComputeStepSymplecticPre
  (unsigned n,unsigned npb
  ,const float4 *velrhoppre,const float *ar,const double3 *ace,double dtm,float rhopoutmin,float rhopoutmax
  ,word *code,double2 *movxy,double *movz,float4 *velrhop)
{
  unsigned p=blockIdx.y*gridDim.x*blockDim.x + blockIdx.x*blockDim.x + threadIdx.x; //-Nº de la partícula //-NI of the particle.
  if(p<n){
    if(p<npb){//-Particulas: Fixed & Moving //-Particles: Fixed & Moving
      float4 rvelrhop=velrhoppre[p];
       rvelrhop.w=velrhop[p].w;
      /*rvelrhop.w=float(double(rvelrhop.w)+dtm*ar[p]);
      rvelrhop.w=(rvelrhop.w<CTE.rhopzero? CTE.rhopzero: rvelrhop.w);*/ //-Evita q las boundary absorvan a las fluidas.  //-To prevent absorption of fluid particles by boundaries.
      velrhop[p]=rvelrhop;
    }
    else{ //-Particulas: Floating & Fluid //-Particles: Floating & Fluid
      //-Actualiza densidad.
	  //-Updates density.
      float4 rvelrhop=velrhoppre[p];
      if(!floating || CODE_GetType(code[p])==CODE_TYPE_FLUID){//-Particulas: Fluid //-Particles: Fluid
        //-Comprueba limites de rhop.
		//-Checks rhop limits.
        /*if(rvelrhop.w<rhopoutmin||rvelrhop.w>rhopoutmax){//-Solo marca como excluidas las normales (no periodicas).  //-Only brands as excluded normal particles (not periodic)
          const word rcode=code[p];
          if(CODE_GetSpecialValue(rcode)==CODE_NORMAL)code[p]=CODE_SetOutRhop(rcode);
        }*/
        //-Calcula y graba desplazamiento de posicion.
		//-Computes and stores position displacement.
        double dx=double(rvelrhop.x)*dtm;
        double dy=double(rvelrhop.y)*dtm;
        double dz=double(rvelrhop.z)*dtm;
        /*if(shift){
          const float3 rshiftpos=shiftpos[p];
          dx+=double(rshiftpos.x);
          dy+=double(rshiftpos.y);
          dz+=double(rshiftpos.z);
        }*/
        movxy[p]=make_double2(dx,dy);
        movz[p]=dz;
        //-Actualiza velocidad.
		//-Updates velocity.
        const double3 race=ace[p];
        rvelrhop.x=float(double(rvelrhop.x)+double(race.x)*dtm);
        rvelrhop.y=float(double(rvelrhop.y)+double(race.y)*dtm);
        rvelrhop.z=float(double(rvelrhop.z)+double(race.z)*dtm);
      }
      /*else{//-Particulas: Floating /-Particles: Floating
        rvelrhop.w=(rvelrhop.w<CTE.rhopzero? CTE.rhopzero: rvelrhop.w); //-Evita q las floating absorvan a las fluidas.  //-To prevent absorption of fluid particles by boundaries.
      }*/
      //-Graba nueva velocidad y densidad.
	  //-Stores new velocity and density.
      velrhop[p]=rvelrhop;
    }
  }
}

//==============================================================================
/// Actualizacion de particulas usando Symplectic-Predictor.
/// Updates particles using Symplectic-Predictor.
//==============================================================================   
void ComputeStepSymplecticPre(bool floating,unsigned np,unsigned npb
  ,const float4 *velrhoppre,const float *ar,const double3 *ace,double dtm,float rhopoutmin,float rhopoutmax
  ,word *code,double2 *movxy,double *movz,float4 *velrhop)
{
  if(np){
    dim3 sgrid=GetGridSize(np,SPHBSIZE);

    if(floating)KerComputeStepSymplecticPre<true>  <<<sgrid,SPHBSIZE>>> (np,npb,velrhoppre,ar,ace,dtm,rhopoutmin,rhopoutmax,code,movxy,movz,velrhop);
    else        KerComputeStepSymplecticPre<false> <<<sgrid,SPHBSIZE>>> (np,npb,velrhoppre,ar,ace,dtm,rhopoutmin,rhopoutmax,code,movxy,movz,velrhop);
  }
}

//------------------------------------------------------------------------------
/// ES:
/// Calcula los nuevos valores de Pos, Vel y Rhop (usandopara Symplectic-Corrector)
[...]
      KerPressureAssignCode1<true> <<<sgridb,bsbound>>> (np,npb,npbok,0,gravity,posxy,posz,pospress,velrhop,press,porder,idp,code,irelationg,divr); 
    }
    else{
      KerPressureAssignCode0<false> <<<sgridf,bsfluid>>> (np,npf,npb,velrhop,code,porder,press);
      KerPressureAssignCode0<false> <<<sgridb,bsbound>>> (np,npbok,0,velrhop,code,porder,press);
      KerPressureAssignCode1<false> <<<sgridb,bsbound>>> (np,npb,npbok,0,gravity,posxy,posz,pospress,velrhop,press,porder,idp,code,irelationg,divr); 
    }
  }
}

//==============================================================================
/// Initialises array with the indicated value.
//==============================================================================
__global__ void KerInitArrayPOrder(unsigned n,unsigned *v,unsigned value)
{
  unsigned p=blockIdx.y*gridDim.x*blockDim.x + blockIdx.x*blockDim.x + threadIdx.x; //-Nº de la particula //-NI of the particle
  if(p<n)v[p]=value;
}

void InitArrayPOrder(unsigned n,unsigned *v, unsigned value){
  if(n){
    dim3 sgrid=GetGridSize(n,SPHBSIZE);
    KerInitArrayPOrder <<<sgrid,SPHBSIZE>>> (n,v,value);
  }
}

__global__ void KerInitArrayCol(unsigned n,unsigned int *v,int value)
{
  unsigned p=blockIdx.y*gridDim.x*blockDim.x + blockIdx.x*blockDim.x + threadIdx.x; //-Nº de la particula //-NI of the particle
  if(p<n)v[p]=value;
}
void InitArrayCol(unsigned n,unsigned int *v,int value){
  if(n){
    dim3 sgrid=GetGridSize(n,SPHBSIZE);
    KerInitArrayCol <<<sgrid,SPHBSIZE>>> (n,v,value);
  }
}

//==============================================================================
/// Solve matrix with ViennaCL
//==============================================================================

template<typename MatrixType, typename VectorType, typename SolverTag, typename PrecondTag>
void run_solverCPU(MatrixType const & matrix, VectorType const & rhs,SolverTag const & solver, PrecondTag const & precond,std::vector<double> &vectorx,const unsigned ppedim){ 
  VectorType result(rhs);
  VectorType residual(rhs);
  viennacl::tools::timer timer;
  timer.start();   
  result = viennacl::linalg::solve(matrix, rhs, solver, precond);
  viennacl::backend::finish();    
  std::cout << "  > Solver time: " << timer.get() << std::endl;   
  residual -= viennacl::linalg::prod(matrix, result); 
  std::cout << "  > Relative residual: " << viennacl::linalg::norm_2(residual) / viennacl::linalg::norm_2(rhs) << std::endl;  
  std::cout << "  > Iterations: " << solver.iters() << std::endl;

  copy(result,vectorx);
}

void solveViennaCPU(double *matrixa, double *matrixb, double *matrixx,unsigned int *row, unsigned int *col,const unsigned ppedim,const unsigned nnz){
    viennacl::context ctx;
   
    typedef double ScalarType;

    double *matrixaCPU; matrixaCPU=new double[nnz]; cudaMemcpy(matrixaCPU,matrixa,sizeof(double)*nnz,cudaMemcpyDeviceToHost);
    double *matrixbCPU; matrixbCPU=new double[ppedim]; cudaMemcpy(matrixbCPU,matrixb,sizeof(double)*ppedim,cudaMemcpyDeviceToHost);
    double *matrixxCPU; matrixxCPU=new double[ppedim]; cudaMemcpy(matrixxCPU,matrixx,sizeof(double)*ppedim,cudaMemcpyDeviceToHost);
    unsigned int *rowCPU; rowCPU=new unsigned int[ppedim+1]; cudaMemcpy(rowCPU,row,sizeof(unsigned int)*(ppedim+1),cudaMemcpyDeviceToHost);
    unsigned int *colCPU; colCPU=new unsigned int[nnz]; cudaMemcpy(colCPU,col,sizeof(unsigned int)*nnz,cudaMemcpyDeviceToHost);
    
    std::vector<double>vectora; vectora.resize(nnz); for(int i=0;i<nnz;i++) vectora[i]=matrixaCPU[i];
    std::vector<double>vectorb; vectorb.resize(ppedim); for(int i=0;i<ppedim;i++) vectorb[i]=matrixbCPU[i];
    std::vector<double>vectorx; vectorx.resize(ppedim); for(int i=0;i<ppedim;i++) vectorx[i]=matrixxCPU[i];
    std::vector<int>vectorrow; vectorrow.resize(ppedim+1); for(int i=0;i<(ppedim+1);i++) vectorrow[i]=rowCPU[i];
    std::vector<int>vectorcol; vectorcol.resize(nnz); for(int i=0;i<nnz;i++) vectorcol[i]=colCPU[i];

    viennacl::compressed_matrix<ScalarType> vcl_compressed_matrix(ctx);
    vcl_compressed_matrix.set(&vectorrow[0],&vectorcol[0],&vectora[0],ppedim,ppedim,nnz);

    viennacl::vector<ScalarType> vcl_vec(vectorb.size(),ctx);
    
    copy(vectorb,vcl_vec);

    viennacl::linalg::bicgstab_tag bicgstab(1e-5,2000);

    std::cout<<"JACOBI PRECOND GPUCPU" <<std::endl;
    viennacl::vector<ScalarType> vcl_result(vcl_compressed_matrix.size1(),ctx);
    viennacl::linalg::jacobi_precond< viennacl::compressed_matrix<ScalarType> > vcl_jacobi(vcl_compressed_matrix,viennacl::linalg::jacobi_tag());
    run_solverCPU(vcl_compressed_matrix,vcl_vec,bicgstab,vcl_jacobi,vectorx,ppedim);

    for(int i=0;i<ppedim;i++) matrixxCPU[i]=vectorx[i]; cudaMemcpy(matrixx,matrixxCPU,sizeof(double)*ppedim,cudaMemcpyHostToDevice);
    delete[] matrixaCPU; delete[] matrixbCPU; delete[] matrixxCPU; delete[] rowCPU; delete[] colCPU;
    vectora.clear(); vectorb.clear(); vectorx.clear(); vectorrow.clear();vectorcol.clear();
}    

template<typename MatrixType, typename VectorType, typename SolverTag, typename PrecondTag,typename ScalarType>
void run_solver(MatrixType const & matrix, VectorType const & rhs,SolverTag const & solver, PrecondTag const & precond,viennacl::vector<ScalarType> & vcl_result){ 
  VectorType result(rhs);
  VectorType residual(rhs);
  viennacl::tools::timer timer;
  timer.start();
  result = viennacl::linalg::solve(matrix, rhs, solver, precond);   
  viennacl::backend::finish();  
  std::cout << "  > Solver time: " << timer.get() << std::endl;   
  residual -= viennacl::linalg::prod(matrix, result); 
  std::cout << "  > Relative residual: " << viennacl::linalg::norm_2(residual) / viennacl::linalg::norm_2(rhs) << std::endl;  
  std::cout << "  > Iterations: " << solver.iters() << std::endl;
  viennacl::copy(result,vcl_result);
}

template<typename ScalarType>
void run_amg(viennacl::linalg::bicgstab_tag & bicgstab_solver,viennacl::vector<ScalarType> & vcl_vec,viennacl::compressed_matrix<ScalarType> & matrix,
             std::string info,viennacl::linalg::amg_tag & amg_tag,viennacl::vector<ScalarType> & vcl_result){
  viennacl::linalg::amg_precond<viennacl::compressed_matrix<ScalarType> > vcl_amg(matrix, amg_tag);
  std::cout << " * Setup phase (ViennaCL types)..." << std::endl;
  viennacl::tools::timer timer; 
  timer.start(); 
  vcl_amg.setup(); 
  //std::cout << "levels = " << vcl_amg.levels() << "\n";
  //for(int i =0; i< vcl_amg.levels();i++) std::cout << "level " << i << "\t" << "size = " << vcl_amg.size(i) << "\n";
  viennacl::backend::finish();
  std::cout << "  > Setup time: " << timer.get() << std::endl;
  std::cout << " * CG solver (ViennaCL types)..." << std::endl;
  run_solver(matrix,vcl_vec,bicgstab_solver,vcl_amg,vcl_result);
}

void solveVienna(TpPrecond tprecond,TpAMGInter tamginter,double tolerance,int iterations,float strongconnection,float jacobiweight, int presmooth,int postsmooth,int coarsecutoff,double *matrixa,double *matrixx,double *matrixb,unsigned int *row,unsigned int *col,const unsigned nnz,const unsigned ppedim){
  viennacl::context CudaCtx(viennacl::CUDA_MEMORY);
  typedef double       ScalarType;

  viennacl::compressed_matrix<ScalarType> vcl_A_cuda(row, col, matrixa, viennacl::CUDA_MEMORY, ppedim, ppedim, nnz);
  
  viennacl::vector<ScalarType> vcl_vec(matrixb, viennacl::CUDA_MEMORY, ppedim);
  viennacl::vector<ScalarType> vcl_result(matrixx, viennacl::CUDA_MEMORY, ppedim);

  viennacl::linalg::bicgstab_tag bicgstab(1e-5,2000);
  //viennacl::linalg::gmres_tag gmres(tolerance,iterations,20);

  //if(tprecond==PRECOND_Jacobi){
    std::cout<<"JACOBI PRECOND" <<std::endl;
    viennacl::linalg::jacobi_precond< viennacl::compressed_matrix<ScalarType> > vcl_jacobi(vcl_A_cuda,viennacl::linalg::jacobi_tag());
    run_solver(vcl_A_cuda,vcl_vec,bicgstab,vcl_jacobi,vcl_result);
  /*}
  else if(tprecond==PRECOND_AMG){
    std::cout<<"AMG PRECOND"<<std::endl;

    viennacl::linalg::amg_tag amg_tag_agg_pmis;
    amg_tag_agg_pmis.set_coarsening_method(viennacl::linalg::AMG_COARSENING_METHOD_MIS2_AGGREGATION); std::cout<<"COARSENING: MIS2 AGGREGATION"<<std::endl;
    if(tamginter==AMGINTER_AG){ amg_tag_agg_pmis.set_interpolation_method(viennacl::linalg::AMG_INTERPOLATION_METHOD_AGGREGATION); std::cout<<"INTERPOLATION: AGGREGATION "<<std::endl; }
    else if(tamginter==AMGINTER_SAG){ amg_tag_agg_pmis.set_interpolation_method(viennacl::linalg::AMG_INTERPOLATION_METHOD_SMOOTHED_AGGREGATION); std::cout<<"INTERPOLATION: SMOOTHED AGGREGATION"<<std::endl; }
    
    amg_tag_agg_pmis.set_strong_connection_threshold(strongconnection);
    amg_tag_agg_pmis.set_jacobi_weight(jacobiweight);
    amg_tag_agg_pmis.set_presmooth_steps(presmooth);
    amg_tag_agg_pmis.set_postsmooth_steps(postsmooth); 
    amg_tag_agg_pmis.set_coarsening_cutoff(coarsecutoff); 
    run_amg(bicgstab,vcl_vec,vcl_A_cuda,"MIS2 AGGREGATION COARSENING, AGGREGATION INTERPOLATION",amg_tag_agg_pmis,vcl_result);
  }*/
}

//------------------------------------------------------------------------------
/// Shifting
//------------------------------------------------------------------------------
template<bool psimple,TpFtMode ftmode> __device__ void KerInteractionForcesShifting2
  (bool boundp2,unsigned p1,const unsigned &pini,const unsigned &pfin,float visco,const float *ftomassp
  ,const double2 *posxy,const double *posz,const float4 *pospress,float4 *velrhop,const word *code
  ,float massp2,float ftmassp1,bool ftp1
  ,double3 posdp1,float3 posp1,float3 velp1,float pressp1,float rhopp1
  ,TpShifting tshifting,float3 &shiftposp1,float Wab1,const float tensilen, const float tensiler,float &divrp1)
{
  for(int p2=pini;p2<pfin;p2++){
    double drx,dry,drz;
    float pressp2;
    KerGetParticlesDr<psimple> (p2,posxy,posz,pospress,posdp1,posp1,drx,dry,drz,pressp2);
    double rr2=drx*drx+dry*dry+drz*drz;
    if(rr2<=CTE.fourh2 && rr2>=ALMOSTZERO){
      //-Wendland kernel.
      double frx,fry,frz;
      KerGetKernel(rr2,drx,dry,drz,frx,fry,frz);
	  
      //-Obtiene masa de particula p2 en caso de existir floatings.
	  //-Obtains mass of particle p2 if any floating bodies exist.
      bool ftp2;         //-Indica si es floating. //-indicates if it is floating.
      float ftmassp2;    //-Contiene masa de particula floating o massp2 si es bound o fluid. //-Contains mass of floating body or massf if fluid.
     // bool compute=true; //-Se desactiva cuando se usa DEM y es float-float o float-bound. //-Deactivated when DEM is used and is float-float or float-bound.
      if(USE_FLOATING){
        const word cod=code[p2];
        ftp2=(CODE_GetType(cod)==CODE_TYPE_FLOATING);
        ftmassp2=(ftp2? ftomassp[CODE_GetTypeValue(cod)]: massp2);
        //if(ftp2 && (tdelta==DELTA_Dynamic || tdelta==DELTA_DynamicExt))deltap1=FLT_MAX;
        if(ftp2 && tshifting==SHIFT_NoBound)shiftposp1.x=FLT_MAX; //-Con floatings anula shifting. //-Cancels shifting with floating bodies
        //compute=!(USE_DEM && ftp1 && (boundp2 || ftp2)); //-Se desactiva cuando se usa DEM y es float-float o float-bound. //-Deactivated when DEM is used and is float-float or float-bound.
      }

      //-Shifting correction
      const float massrhop=(USE_FLOATING? ftmassp2: massp2)/CTE.rhopzero;
      const float tensile=tensilen*powf(KerGetKernelWab(rr2)/Wab1,tensiler);
        //const bool noshift=(boundp2 && (tshifting==SHIFT_NoBound || (tshifting==SHIFT_NoFixed && CODE_GetType(code[p2])==CODE_TYPE_FIXED)));
        shiftposp1.x+=massrhop*(1.0f+tensile)*frx; 
        shiftposp1.y+=massrhop*(1.0f+tensile)*fry;
        shiftposp1.z+=massrhop*(1.0f+tensile)*frz;
        divrp1-=massrhop*(drx*frx+dry*fry+drz*frz);
    }
  }
}

template<bool psimple,TpFtMode ftmode> __global__ void KerInteractionForcesShifting1
  (unsigned n,unsigned pinit,int hdiv,uint4 nc,unsigned cellfluid,float viscob,float viscof
  ,const int2 *begincell,int3 cellzero,const unsigned *dcell,const float *ftomassp
  ,const double2 *posxy,const double *posz,const float4 *pospress,float4 *velrhop,const word *code
  ,TpShifting tshifting,float3 *shiftpos,double *divr,const float tensilen,const float tensiler)
{
  unsigned p=blockIdx.y*gridDim.x*blockDim.x + blockIdx.x*blockDim.x + threadIdx.x; //-Nº de la partícula //-NI of the particle
  if(p<n){
    unsigned p1=p+pinit;      //-Nº de particula. //-NI of particle
    //float visc=0,arp1=0,deltap1=0;
   // float3 acep1=make_float3(0,0,0);
     const float Wab1=KerGetKernelWab(CTE.dp*CTE.dp);
    //-Vars para Shifting.
	//-Variables for Shifting.
    float3 shiftposp1=make_float3(0,0,0);
    float  divrp1=0;
   /* if(shift){
      shiftposp1=make_float3(0,0,0);
      shiftdetectp1=0;
    }*/

    //-Obtiene datos de particula p1 en caso de existir floatings.
	//-Obtains data of particle p1 in case there are floating bodies.
    bool ftp1;       //-Indica si es floating. //-Indicates if it is floating.
    float ftmassp1;  //-Contiene masa de particula floating o 1.0f si es fluid. //-Contains floating particle mass or 1.0f if it is fluid.
    /*if(USE_FLOATING){
      const word cod=code[p1];
      ftp1=(CODE_GetType(cod)==CODE_TYPE_FLOATING);
      ftmassp1=(ftp1? ftomassp[CODE_GetTypeValue(cod)]: 1.f);
      //if(ftp1 && (tdelta==DELTA_Dynamic || tdelta==DELTA_DynamicExt))deltap1=FLT_MAX;
      //if(ftp1 && shift)shiftposp1.x=FLT_MAX;  //-Para floatings no se calcula shifting. //-Shifting is not calculated for floating bodies.
    }*/

    //-Obtiene datos basicos de particula p1.
	//-Obtains basic data of particle p1.
    double3 posdp1;
    float3 posp1,velp1;
    float rhopp1,pressp1;
    KerGetParticleData<psimple>(p1,posxy,posz,pospress,velrhop,velp1,rhopp1,posdp1,posp1,pressp1);
    pressp1=velrhop[p1].w;
    //-Vars para Laminar+SPS
	//-Variables for Laminar+SPS
   // float2 taup1_xx_xy,taup1_xz_yy,taup1_yz_zz;
    /*if(lamsps){
      taup1_xx_xy=tauff[p1*3];
      taup1_xz_yy=tauff[p1*3+1];
      taup1_yz_zz=tauff[p1*3+2];
    }*/
    //-Vars para Laminar+SPS (calculo).
	//-Variables for Laminar+SPS (computation).
   // float2 grap1_xx_xy,grap1_xz_yy,grap1_yz_zz;
    /*if(lamsps){
      grap1_xx_xy=make_float2(0,0);
      grap1_xz_yy=make_float2(0,0);
      grap1_yz_zz=make_float2(0,0);
    }*/

    //-Obtiene limites de interaccion
	//-Obtains interaction limits
    int cxini,cxfin,yini,yfin,zini,zfin;
    KerGetInteractionCells(dcell[p1],hdiv,nc,cellzero,cxini,cxfin,yini,yfin,zini,zfin);

    //-Interaccion con Fluidas.
	//-Interaction with fluids.
    for(int z=zini;z<zfin;z++){
      int zmod=(nc.w)*z+cellfluid; //-Le suma donde empiezan las celdas de fluido. //-The sum showing where fluid cells start
      for(int y=yini;y<yfin;y++){
        int ymod=zmod+nc.x*y;
        unsigned pini,pfin=0;
        for(int x=cxini;x<cxfin;x++){
          int2 cbeg=begincell[x+ymod];
          if(cbeg.y){
            if(!pfin)pini=cbeg.x;
            pfin=cbeg.y;
          }
        }
        if(pfin){
		      KerInteractionForcesShifting2<psimple,ftmode> (false,p1,pini,pfin,viscob,ftomassp,posxy,posz,pospress,velrhop,code,CTE.massf,ftmassp1,ftp1,posdp1,posp1,velp1,pressp1,rhopp1,tshifting,shiftposp1,Wab1,tensilen,tensiler,divrp1);
        }
	    }
    }

    if(shiftposp1.x||shiftposp1.y||shiftposp1.z||divrp1){
      float3 s=shiftpos[p1];
      s.x+=shiftposp1.x; s.y+=shiftposp1.y; s.z+=shiftposp1.z;
      shiftpos[p1]=s;
      shiftposp1=make_float3(0,0,0);
      divr[p1]+=divrp1;
      divrp1=0;
    }

    //-Interaccion con contorno.
	//-Interaction with boundaries.
    for(int z=zini;z<zfin;z++){
      int zmod=(nc.w)*z;
      for(int y=yini;y<yfin;y++){
        int ymod=zmod+nc.x*y;
        unsigned pini,pfin=0;
        for(int x=cxini;x<cxfin;x++){
          int2 cbeg=begincell[x+ymod];
          if(cbeg.y){
            if(!pfin)pini=cbeg.x;
            pfin=cbeg.y;
          }
        }
        if(pfin){
		      KerInteractionForcesShifting2<psimple,ftmode> (true,p1,pini,pfin,viscof,ftomassp,posxy,posz,pospress,velrhop,code,CTE.massf,ftmassp1,ftp1,posdp1,posp1,velp1,pressp1,rhopp1,tshifting,shiftposp1,Wab1,tensilen,tensiler,divrp1);
        }
      }
    }
    
    if(shiftposp1.x||shiftposp1.y||shiftposp1.z||divrp1){
      float3 s=shiftpos[p1];
      s.x+=shiftposp1.x; s.y+=shiftposp1.y; s.z+=shiftposp1.z;
      shiftpos[p1]=s;
      divr[p1]+=divrp1;
    }
  }
}

void Interaction_Shifting
  (bool psimple,bool floating,bool usedem,TpCellMode cellmode,float viscob,float viscof,unsigned bsfluid
  ,unsigned np,unsigned npb,unsigned npbok,tuint3 ncells
  ,const int2 *begincell,tuint3 cellmin,const unsigned *dcell
  ,const double2 *posxy,const double *posz,const float4 *pospress
  ,float4 *velrhop,const word *code,const float *ftomassp
  ,TpShifting tshifting,float3 *shiftpos,double *divr,const float tensilen,const float tensiler)
{
  const unsigned npf=np-npb;
  const int hdiv=(cellmode==CELLMODE_H? 2: 1);
  const uint4 nc=make_uint4(ncells.x,ncells.y,ncells.z,ncells.x*ncells.y);
  const unsigned cellfluid=nc.w*nc.z+1;
  const int3 cellzero=make_int3(cellmin.x,cellmin.y,cellmin.z);
  //-Interaccion Fluid-Fluid & Fluid-Bound
  //-Interaction Fluid-Fluid & Fluid-Bound
  if(npf){
    dim3 sgridf=GetGridSize(npf,bsfluid);

    if(psimple){ const bool psimple=true;
      if(!floating)   KerInteractionForcesShifting1<psimple,FTMODE_None> <<<sgridf,bsfluid>>> (npf,npb,hdiv,nc,cellfluid,viscob,viscof,begincell,cellzero,dcell,ftomassp,posxy,posz,pospress,velrhop,code,tshifting,shiftpos,divr,tensilen,tensiler);
      else if(!usedem)KerInteractionForcesShifting1<psimple,FTMODE_Sph> <<<sgridf,bsfluid>>> (npf,npb,hdiv,nc,cellfluid,viscob,viscof,begincell,cellzero,dcell,ftomassp,posxy,posz,pospress,velrhop,code,tshifting,shiftpos,divr,tensilen,tensiler);
      else            KerInteractionForcesShifting1<psimple,FTMODE_Dem> <<<sgridf,bsfluid>>> (npf,npb,hdiv,nc,cellfluid,viscob,viscof,begincell,cellzero,dcell,ftomassp,posxy,posz,pospress,velrhop,code,tshifting,shiftpos,divr,tensilen,tensiler);
    }
    else{ const bool psimple=false;
      if(!floating)   KerInteractionForcesShifting1<psimple,FTMODE_None> <<<sgridf,bsfluid>>> (npf,npb,hdiv,nc,cellfluid,viscob,viscof,begincell,cellzero,dcell,ftomassp,posxy,posz,pospress,velrhop,code,tshifting,shiftpos,divr,tensilen,tensiler);
      else if(!usedem)KerInteractionForcesShifting1<psimple,FTMODE_Sph> <<<sgridf,bsfluid>>> (npf,npb,hdiv,nc,cellfluid,viscob,viscof,begincell,cellzero,dcell,ftomassp,posxy,posz,pospress,velrhop,code,tshifting,shiftpos,divr,tensilen,tensiler);
      else            KerInteractionForcesShifting1<psimple,FTMODE_Dem> <<<sgridf,bsfluid>>> (npf,npb,hdiv,nc,cellfluid,viscob,viscof,begincell,cellzero,dcell,ftomassp,posxy,posz,pospress,velrhop,code,tshifting,shiftpos,divr,tensilen,tensiler);
    }
  }
}

template<bool floating> __global__ void KerComputeShift
  (unsigned npf,unsigned npb,const float3 *shiftpos,word *code,double2 *movxy,double *movz)
{
  unsigned p=blockIdx.y*gridDim.x*blockDim.x + blockIdx.x*blockDim.x + threadIdx.x; //-Nº de la partícula //-NI of the particle.
  if(p<npf){
    unsigned p1=p+npb;
    const float3 rshiftpos=shiftpos[p1];
    if(!floating || CODE_GetType(code[p1])==CODE_TYPE_FLUID){//-Particulas: Fluid //-Particles: Fluid
      double dx=double(rshiftpos.x);
      double dy=double(rshiftpos.y);
      double dz=double(rshiftpos.z);
      /*if(shift){
        const float3 rshiftpos=shiftpos[p];
        dx+=double(rshiftpos.x);
        dy+=double(rshiftpos.y);
        dz+=double(rshiftpos.z);
      }*/
      movxy[p1]=make_double2(dx,dy);
      movz[p1]=dz;
    }
  }
}

void ComputeShift(bool floating,const unsigned bsfluid,unsigned np,unsigned npb,const float3 *shiftpos
  ,word *code,double2 *movxy,double *movz)
{
  const unsigned npf=np-npb;
  if(npf){
    dim3 sgridf=GetGridSize(npf,bsfluid);
    if(floating)KerComputeShift<true>  <<<sgridf,bsfluid>>> (npf,npb,shiftpos,code,movxy,movz);
    else        KerComputeShift<false> <<<sgridf,bsfluid>>> (npf,npb,shiftpos,code,movxy,movz);
  }
}
}