/*
 <DUALSPHYSICS>  Copyright (c) 2015, Jose M. Dominguez et al. (see http://dual.sphysics.org/index.php/developers/). 

 EPHYSLAB Environmental Physics Laboratory, Universidade de Vigo, Ourense, Spain.
 School of Mechanical, Aerospace and Civil Engineering, University of Manchester, Manchester, U.K.

 This file is part of DualSPHysics. 

 DualSPHysics is free software: you can redistribute it and/or modify it under the terms of the GNU General Public License as published by
 the Free Software Foundation, either version 3 of the License, or (at your option) any later version. 

 DualSPHysics is distributed in the hope that it will be useful, but WITHOUT ANY WARRANTY; without even the implied warranty of
 MERCHANTABILITY or FITNESS FOR A PARTICULAR PURPOSE.  See the GNU General Public License for more details. 

 You should have received a copy of the GNU General Public License, along with DualSPHysics. If not, see <http://www.gnu.org/licenses/>. 
*/

#include "JSphGpu_ker.h"
#include "JBlockSizeAuto.h"
#include "JLog2.h"
#include <cfloat>
#include <math_constants.h>
//#include "JDgKerPrint.h"
//#include "JDgKerPrint_ker.h"

#pragma warning(disable : 4267) //Cancels "warning C4267: conversion from 'size_t' to 'int', possible loss of data"
#pragma warning(disable : 4244) //Cancels "warning C4244: conversion from 'unsigned __int64' to 'unsigned int', possible loss of data"
#pragma warning(disable : 4503) //Cancels "warning C4503: decorated name length exceeded, name was truncated"
#include <cuda_runtime.h>
#include <thrust/device_vector.h>
#include <thrust/sort.h>

#include <iostream>
#include <cstdlib>
#include <string>
#include <cuda.h>

#define VIENNACL_WITH_CUDA
#include "viennacl/vector.hpp"
#include "viennacl/compressed_matrix.hpp"
#include "viennacl/linalg/bicgstab.hpp"
#include "viennacl/linalg/gmres.hpp"
#include "viennacl/tools/timer.hpp"
#include "viennacl/linalg/norm_2.hpp"
#include "viennacl/linalg/jacobi_precond.hpp"
#include "viennacl/forwards.h"
#include "viennacl/linalg/amg.hpp"
#include "viennacl/linalg/prod.hpp"

__constant__ StCteInteraction CTE;

namespace cusph{
  
//==============================================================================
/// Comprueba error y finaliza ejecucion.
/// Checks mistake and ends execution.
//==============================================================================
#define CheckErrorCuda(text)  __CheckErrorCuda(text,__FILE__,__LINE__)
void __CheckErrorCuda(const char *text,const char *file,const int line){
  cudaError_t err=cudaGetLastError();
  if(cudaSuccess!=err){
    char cad[2048]; 
    sprintf(cad,"%s (CUDA error: %s -> %s:%i).\n",text,cudaGetErrorString(err),file,line); 
    throw std::string(cad);
  }
}

//==============================================================================
/// Devuelve tamaño de gridsize segun parametros.
/// Returns size of gridsize according to parameters.
//==============================================================================
dim3 GetGridSize(unsigned n,unsigned blocksize){
  dim3 sgrid;//=dim3(1,2,3);
  unsigned nb=unsigned(n+blocksize-1)/blocksize;//-Numero total de bloques a lanzar. //-Total block number to throw.
  sgrid.x=(nb<=65535? nb: unsigned(sqrt(float(nb))));
  sgrid.y=(nb<=65535? 1: unsigned((nb+sgrid.x-1)/sgrid.x));
  sgrid.z=1;
  return(sgrid);
}

//==============================================================================
/// Reduccion mediante maximo de valores float en memoria shared para un warp.
/// Reduction using maximum of float values in shared memory for a warp.
//==============================================================================
template <unsigned blockSize> __device__ void KerReduMaxFloatWarp(volatile float* sdat,unsigned tid) {
  if(blockSize>=64)sdat[tid]=max(sdat[tid],sdat[tid+32]);
  if(blockSize>=32)sdat[tid]=max(sdat[tid],sdat[tid+16]);
  if(blockSize>=16)sdat[tid]=max(sdat[tid],sdat[tid+8]);
  if(blockSize>=8)sdat[tid]=max(sdat[tid],sdat[tid+4]);
  if(blockSize>=4)sdat[tid]=max(sdat[tid],sdat[tid+2]);
  if(blockSize>=2)sdat[tid]=max(sdat[tid],sdat[tid+1]);
}

//==============================================================================
/// ES:
/// Acumula la suma de n valores del vector dat[], guardando el resultado al 
/// principio de res[] (Se usan tantas posiciones del res[] como bloques, 
/// quedando el resultado final en res[0]).
/// - EN:
/// Accumulates the sum of n values of array dat[], storing the result in 
/// the beginning of res[].(Many positions of res[] are used as blocks, 
/// storing the final result in res[0]).
//==============================================================================
template <unsigned blockSize> __global__ void KerReduMaxFloat(unsigned n,unsigned ini,const float *dat,float *res){
  extern __shared__ float sdat[];
  unsigned tid=threadIdx.x;
  unsigned c=blockIdx.y*gridDim.x*blockDim.x + blockIdx.x*blockDim.x + threadIdx.x;
  sdat[tid]=(c<n? dat[c+ini]: -FLT_MAX);
  __syncthreads();
  if(blockSize>=512){ if(tid<256)sdat[tid]=max(sdat[tid],sdat[tid+256]);  __syncthreads(); }
  if(blockSize>=256){ if(tid<128)sdat[tid]=max(sdat[tid],sdat[tid+128]);  __syncthreads(); }
  if(blockSize>=128){ if(tid<64) sdat[tid]=max(sdat[tid],sdat[tid+64]);   __syncthreads(); }
  if(tid<32)KerReduMaxFloatWarp<blockSize>(sdat,tid);
  if(tid==0)res[blockIdx.y*gridDim.x + blockIdx.x]=sdat[0];
}

//==============================================================================
/// ES:
/// Devuelve el maximo de un vector, usando resu[] como vector auxiliar. El tamaño
/// de resu[] debe ser >= a (N/SPHBSIZE+1)+(N/(SPHBSIZE*SPHBSIZE)+SPHBSIZE)
/// - EN:
/// Returns the maximum of an array, using resu[] as auxiliar array.
/// Size of resu[] must be >= a (N/SPHBSIZE+1)+(N/(SPHBSIZE*SPHBSIZE)+SPHBSIZE)
//==============================================================================
float ReduMaxFloat(unsigned ndata,unsigned inidata,float* data,float* resu){
	float resf;
  if(1){
    unsigned n=ndata,ini=inidata;
    unsigned smemSize=SPHBSIZE*sizeof(float);
    dim3 sgrid=GetGridSize(n,SPHBSIZE);
    unsigned n_blocks=sgrid.x*sgrid.y;
    float *dat=data;
    float *resu1=resu,*resu2=resu+n_blocks;
    float *res=resu1;
    while(n>1){
      KerReduMaxFloat<SPHBSIZE><<<sgrid,SPHBSIZE,smemSize>>>(n,ini,dat,res);
      n=n_blocks; ini=0;
      sgrid=GetGridSize(n,SPHBSIZE);  
      n_blocks=sgrid.x*sgrid.y;
      if(n>1){
        dat=res; res=(dat==resu1? resu2: resu1); 
      }
    }
	  
		if(ndata>1)cudaMemcpy(&resf,res,sizeof(float),cudaMemcpyDeviceToHost);
		else cudaMemcpy(&resf,data,sizeof(float),cudaMemcpyDeviceToHost);
  }

	//else{//-Using Thrust library is slower than ReduMasFloat() with ndata < 5M.
  //  thrust::device_ptr<float> dev_ptr(data);
  //  resf=thrust::reduce(dev_ptr,dev_ptr+ndata,-FLT_MAX,thrust::maximum<float>());
  //}
  return(resf);
}

//==============================================================================
/// ES:
/// Acumula la suma de n valores del vector dat[].w, guardando el resultado al 
/// principio de res[] (Se usan tantas posiciones del res[] como bloques, 
/// quedando el resultado final en res[0]).
/// - EN:
/// Accumulates the sum of n values of array dat[], storing the result in 
/// the beginning of res[].(Many positions of res[] are used as blocks, 
/// storing the final result in res[0]).
//==============================================================================
template <unsigned blockSize> __global__ void KerReduMaxFloat_w(unsigned n,unsigned ini,const float4 *dat,float *res){
  extern __shared__ float sdat[];
  unsigned tid=threadIdx.x;
  unsigned c=blockIdx.y*gridDim.x*blockDim.x + blockIdx.x*blockDim.x + threadIdx.x;
  sdat[tid]=(c<n? dat[c+ini].w: -FLT_MAX);
  __syncthreads();
  if(blockSize>=512){ if(tid<256)sdat[tid]=max(sdat[tid],sdat[tid+256]);  __syncthreads(); }
  if(blockSize>=256){ if(tid<128)sdat[tid]=max(sdat[tid],sdat[tid+128]);  __syncthreads(); }
  if(blockSize>=128){ if(tid<64) sdat[tid]=max(sdat[tid],sdat[tid+64]);   __syncthreads(); }
  if(tid<32)KerReduMaxFloatWarp<blockSize>(sdat,tid);
  if(tid==0)res[blockIdx.y*gridDim.x + blockIdx.x]=sdat[0];
}

//==============================================================================
/// ES:
/// Devuelve el maximo de la componente w de un vector float4, usando resu[] como 
/// vector auxiliar. El tamaño de resu[] debe ser >= a (N/SPHBSIZE+1)+(N/(SPHBSIZE*SPHBSIZE)+SPHBSIZE)
/// - EN:
/// Returns the maximum of an array, using resu[] as auxiliar array.
/// Size of resu[] must be >= a (N/SPHBSIZE+1)+(N/(SPHBSIZE*SPHBSIZE)+SPHBSIZE)
//==============================================================================
float ReduMaxFloat_w(unsigned ndata,unsigned inidata,float4* data,float* resu){
  unsigned n=ndata,ini=inidata;
  unsigned smemSize=SPHBSIZE*sizeof(float);
  dim3 sgrid=GetGridSize(n,SPHBSIZE);
  unsigned n_blocks=sgrid.x*sgrid.y;
  float *dat=NULL;
  float *resu1=resu,*resu2=resu+n_blocks;
  float *res=resu1;
  while(n>1){
    if(!dat)KerReduMaxFloat_w<SPHBSIZE><<<sgrid,SPHBSIZE,smemSize>>>(n,ini,data,res);
    else KerReduMaxFloat<SPHBSIZE><<<sgrid,SPHBSIZE,smemSize>>>(n,ini,dat,res);
    n=n_blocks; ini=0;
    sgrid=GetGridSize(n,SPHBSIZE);  
    n_blocks=sgrid.x*sgrid.y;
    if(n>1){
      dat=res; res=(dat==resu1? resu2: resu1); 
    }
  }
  float resf;
  if(ndata>1)cudaMemcpy(&resf,res,sizeof(float),cudaMemcpyDeviceToHost);
  else{
    float4 resf4;
    cudaMemcpy(&resf4,data,sizeof(float4),cudaMemcpyDeviceToHost);
    resf=resf4.w;
  }
  return(resf);
}

//==============================================================================
/// Graba constantes para la interaccion a la GPU.
/// Stores constants for the GPU interaction.
//==============================================================================
void CteInteractionUp(const StCteInteraction *cte){
  cudaMemcpyToSymbol(CTE,cte,sizeof(StCteInteraction));
}

//------------------------------------------------------------------------------
/// Inicializa array con el valor indicado.
/// Initialises array with the indicated value.
//------------------------------------------------------------------------------
__global__ void KerInitArray(unsigned n,float3 *v,float3 value)
{
  unsigned p=blockIdx.y*gridDim.x*blockDim.x + blockIdx.x*blockDim.x + threadIdx.x; //-Nº de la particula //-NI of the particle
  if(p<n)v[p]=value;
}

//==============================================================================
/// Inicializa array con el valor indicado.
/// Initialises array with the indicated value.
//==============================================================================
void InitArray(unsigned n,float3 *v,tfloat3 value){
  if(n){
    dim3 sgrid=GetGridSize(n,SPHBSIZE);
    KerInitArray <<<sgrid,SPHBSIZE>>> (n,v,Float3(value));
  }
}

//------------------------------------------------------------------------------
/// Pone v[].y a cero.
/// Sets v[].y to zero.
//------------------------------------------------------------------------------
__global__ void KerResetAcey(unsigned npf,float3 *v)
{
  unsigned p=blockIdx.y*gridDim.x*blockDim.x + blockIdx.x*blockDim.x + threadIdx.x; //-Nº de la partícula //-NI of the particle
  if(p<npf)v[p].y=0;
}

//==============================================================================
// Pone v[].y a cero.
/// Sets v[].y to zero.
//==============================================================================
void ResetAcey(unsigned npf,float3 *v){
  if(npf){
    dim3 sgrid=GetGridSize(npf,SPHBSIZE);
    KerResetAcey <<<sgrid,SPHBSIZE>>> (npf,v);
  }
}

__global__ void KerResetBoundVel(unsigned n,float4 *vel,float4 *velpre)
{
  unsigned p=blockIdx.y*gridDim.x*blockDim.x + blockIdx.x*blockDim.x + threadIdx.x; //-Nº de la partícula //-NI of the particle
  if(p<n){
		vel[p].x=velpre[p].x;
		vel[p].y=velpre[p].y;
		vel[p].z=velpre[p].z;
	}
}
void ResetBoundVel(const unsigned npbok,const unsigned bsbound,float4 *vel,float4 *velpre){
  if(npbok){
    dim3 sgridb=GetGridSize(npbok,bsbound);
    KerResetBoundVel <<<sgridb,bsbound>>> (npbok,vel,velpre);
  }
}

__global__ void KerResetrowIndg(const unsigned npplus,unsigned *row,const unsigned npb)
{
  unsigned p=blockIdx.y*gridDim.x*blockDim.x + blockIdx.x*blockDim.x + threadIdx.x; //-Nº de la partícula //-NI of the particle
  if(p<npplus){
		row[p]=npb;
	}
}

void ResetrowIndg(const unsigned npplus,unsigned *row,const unsigned npb){
	if(npplus){
    dim3 sgrid=GetGridSize(npplus,SPHBSIZE);
    KerResetrowIndg <<<sgrid,SPHBSIZE>>> (npplus,row,npb);
  }
}
//------------------------------------------------------------------------------
/// Calculates module^2 of ace.
//------------------------------------------------------------------------------
__global__ void KerComputeAceMod(unsigned n,const float3 *ace,float *acemod)
{
  unsigned p=blockIdx.y*gridDim.x*blockDim.x + blockIdx.x*blockDim.x + threadIdx.x; //-Number of particle.
  if(p<n){
    const float3 r=ace[p];
    acemod[p]=r.x*r.x+r.y*r.y+r.z*r.z;
  }
}

//==============================================================================
/// Calculates module^2 of ace.
//==============================================================================
void ComputeAceMod(unsigned n,const float3 *ace,float *acemod){
  if(n){
    dim3 sgrid=GetGridSize(n,SPHBSIZE);
    KerComputeAceMod <<<sgrid,SPHBSIZE>>> (n,ace,acemod);
  }
}

//------------------------------------------------------------------------------
/// Calculates module^2 of ace, comprobando que la particula sea normal.
//------------------------------------------------------------------------------
__global__ void KerComputeAceMod(unsigned n,const word *code,const float3 *ace,float *acemod)
{
  unsigned p=blockIdx.y*gridDim.x*blockDim.x + blockIdx.x*blockDim.x + threadIdx.x; //-Number of particle.
  if(p<n){
    const float3 r=(CODE_GetSpecialValue(code[p])==CODE_NORMAL? ace[p]: make_float3(0,0,0));
    acemod[p]=r.x*r.x+r.y*r.y+r.z*r.z;
  }
}

//==============================================================================
/// Calculates module^2 of ace, comprobando que la particula sea normal.
//==============================================================================
void ComputeAceMod(unsigned n,const word *code,const float3 *ace,float *acemod){
  if(n){
    dim3 sgrid=GetGridSize(n,SPHBSIZE);
    KerComputeAceMod <<<sgrid,SPHBSIZE>>> (n,code,ace,acemod);
  }
}


//##############################################################################
//# Otros kernels...
//# Other kernels...
//##############################################################################
//------------------------------------------------------------------------------
/// Calculates module^2 of vel.
//------------------------------------------------------------------------------
__global__ void KerComputeVelMod(unsigned n,const float4 *vel,float *velmod)
{
  unsigned p=blockIdx.y*gridDim.x*blockDim.x + blockIdx.x*blockDim.x + threadIdx.x; //-Number of particle.
  if(p<n){
    const float4 r=vel[p];
    velmod[p]=r.x*r.x+r.y*r.y+r.z*r.z;
  }
}

//==============================================================================
/// Calculates module^2 of vel.
//==============================================================================
void ComputeVelMod(unsigned n,const float4 *vel,float *velmod){
  if(n){
    dim3 sgrid=GetGridSize(n,SPHBSIZE);
    KerComputeVelMod <<<sgrid,SPHBSIZE>>> (n,vel,velmod);
  }
}

//##############################################################################
//# Kernels auxiliares para interaccion.
//# Auxiliary kernels for the interaction.
//##############################################################################
//------------------------------------------------------------------------------
/// Devuelve posicion y vel de particula.
/// Returns postion and vel of a particle.
//------------------------------------------------------------------------------
__device__ void KerGetParticleData(unsigned p1
  ,const double2 *posxy,const double *posz,const float4 *velrhop
  ,float3 &velp1,double3 &posdp1)
{
  float4 r=velrhop[p1];
  velp1=make_float3(r.x,r.y,r.z);

  double2 pxy=posxy[p1];
  posdp1=make_double3(pxy.x,pxy.y,posz[p1]);
}

__device__ void KerGetParticleData(unsigned p1
  ,const double2 *posxy,const double *posz,double3 &posdp1)
{
  double2 pxy=posxy[p1];
  posdp1=make_double3(pxy.x,pxy.y,posz[p1]);
}

//------------------------------------------------------------------------------
/// Devuelve drx, dry y drz entre dos particulas.
/// Returns drx, dry and drz between the particles.
//------------------------------------------------------------------------------
__device__ void KerGetParticlesDr(int p2
  ,const double2 *posxy,const double *posz,const double3 &posdp1
  ,float &drx,float &dry,float &drz)
{
  double2 posp2=posxy[p2];
  drx=float(posdp1.x-posp2.x);
  dry=float(posdp1.y-posp2.y);
  drz=float(posdp1.z-posz[p2]);
}

//------------------------------------------------------------------------------
/// Devuelve limites de celdas para interaccion.
/// Returns cell limits for the interaction.
//------------------------------------------------------------------------------
__device__ void KerGetInteractionCells(unsigned rcell
  ,int hdiv,const uint4 &nc,const int3 &cellzero
  ,int &cxini,int &cxfin,int &yini,int &yfin,int &zini,int &zfin)
{
  //-Obtiene limites de interaccion
  //-Obtains interaction limits.
  const int cx=PC__Cellx(CTE.cellcode,rcell)-cellzero.x;
  const int cy=PC__Celly(CTE.cellcode,rcell)-cellzero.y;
  const int cz=PC__Cellz(CTE.cellcode,rcell)-cellzero.z;
  //-Codigo para hdiv 1 o 2 pero no cero.
  //-Code for hdiv 1 or 2 but not zero.
  cxini=cx-min(cx,hdiv);
  cxfin=cx+min(nc.x-cx-1,hdiv)+1;
  yini=cy-min(cy,hdiv);
  yfin=cy+min(nc.y-cy-1,hdiv)+1;
  zini=cz-min(cz,hdiv);
  zfin=cz+min(nc.z-cz-1,hdiv)+1;
}

//------------------------------------------------------------------------------
/// Devuelve limites de celdas para interaccion.
/// Returns cell limits for the interaction.
//------------------------------------------------------------------------------
__device__ void KerGetInteractionCells(double px,double py,double pz
  ,int hdiv,const uint4 &nc,const int3 &cellzero
  ,int &cxini,int &cxfin,int &yini,int &yfin,int &zini,int &zfin)
{
  //-Obtiene limites de interaccion
  //-Obtains interaction limits.
  const int cx=int((px-CTE.domposminx)/CTE.scell)-cellzero.x;
  const int cy=int((py-CTE.domposminy)/CTE.scell)-cellzero.y;
  const int cz=int((pz-CTE.domposminz)/CTE.scell)-cellzero.z;
  //-Codigo para hdiv 1 o 2 pero no cero.
  //-Code for hdiv 1 or 2 but not zero.
  cxini=cx-min(cx,hdiv);
  cxfin=cx+min(nc.x-cx-1,hdiv)+1;
  yini=cy-min(cy,hdiv);
  yfin=cy+min(nc.y-cy-1,hdiv)+1;
  zini=cz-min(cz,hdiv);
  zfin=cz+min(nc.z-cz-1,hdiv)+1;
}

//------------------------------------------------------------------------------
/// Devuelve valores de kernel: frx, fry y frz. USADA
/// Returns kernel values: frx, fry and frz. USED
//------------------------------------------------------------------------------
__device__ void KerGetKernelQuintic(float rr2,float drx,float dry,float drz
  ,float &frx,float &fry,float &frz)
{
  const float rad=sqrt(rr2);
  const float qq=rad/CTE.h;
  const float Bwen=CTE.bwen;

	//-Quintic Spline
  float fac;
  if(qq<1.0f)fac=Bwen*(-5.0f*powf(3.0f-qq,4.0f)+30.0f*powf(2.0f-qq,4.0f)-75.0f*powf(1.0f-qq,4.0f));
  else if(qq<2.0f)fac=Bwen*(-5.0f*powf(3.0f-qq,4.0f)+30.0f*powf(2.0f-qq,4.0f));
  else if(qq<3.0f)fac=Bwen*(-5.0f*powf(3.0f-qq,4.0f));
  else fac=0;
  fac=fac/rad;

  frx=fac*drx; fry=fac*dry; frz=fac*drz;

}

__device__ void KerGetKernelWendland(float rr2,float drx,float dry,float drz
  ,float &frx,float &fry,float &frz)
{
  const float rad=sqrt(rr2);
  const float qq=rad/CTE.h;

  //-Wendland kernel.
  const float wqq1=1.f-0.5f*qq;
  const float fac=CTE.bwen*qq*wqq1*wqq1*wqq1/rad;

  frx=fac*drx; fry=fac*dry; frz=fac*drz;
}

//------------------------------------------------------------------------------
/// Devuelve valores de kernel: wab.
/// returns kernel values: wab.
//------------------------------------------------------------------------------
__device__ float KerGetKernelQuinticWab(float rr2)
{
  const float rad=sqrt(rr2);
  const float qq=rad/CTE.h;
	const float Awen=CTE.awen;

	//-Quintic Spline
  float wab;
  if(qq<1.0f)wab=Awen*(powf(3.0f-qq,5.0f)-6.0f*powf(2.0f-qq,5.0f)+15.0f*powf(1.0f-qq,5.0f));
  else if(qq<2.0f)wab=Awen*(powf(3.0f-qq,5.0f)-6.0f*powf(2.0f-qq,5.0f));
  else if(qq<3.0f)wab=Awen*(powf(3.0f-qq,5.0f));
  else wab=0;
  return(wab);
}

__device__ float KerGetKernelWendlandWab(float rr2)
{
  const float rad=sqrt(rr2);
  const float qq=rad/CTE.h;

  //-Wendland kernel.
  const float wqq=2.f*qq+1.f;
  const float wqq1=1.f-0.5f*qq;
  const float wqq2=wqq1*wqq1;

  return(CTE.awen*wqq*wqq2*wqq2);
}

template<TpKernel tker> __device__ void KerCalculateMLS3D
  (const unsigned &pini,const unsigned &pfin,const double2 *posxy,const double *posz
	,const double3 posdp1,const float mass,double &b11,double &b12,double &b13,double &b14
	,double &b22,double &b23,double &b24,double &b33,double &b34,double &b44)
{
	const float volume=mass/CTE.rhopzero;
	for(int p2=pini;p2<pfin;p2++){
    float drx,dry,drz;
    KerGetParticlesDr(p2,posxy,posz,posdp1,drx,dry,drz);
    float rr2=drx*drx+dry*dry+drz*drz;
    if(rr2<=CTE.fourh2 && rr2>=ALMOSTZERO){
			float Wab;
			if(tker==KERNEL_Quintic) Wab=KerGetKernelQuinticWab(rr2);
			else if(tker==KERNEL_Wendland) Wab=KerGetKernelWendlandWab(rr2);
			const double temp=Wab*volume;
			b11+= temp;		b12+=drx*temp;			b13+=dry*temp;			b14+=drz*temp;			
										b22+=drx*drx*temp;	b23+=drx*dry*temp;	b24+=drx*drz*temp;
																				b33+=dry*dry*temp;  b34+=dry*drz*temp;
																														b44+=drz*drz*temp;
		}
	}
}

template<TpKernel tker> __global__ void KerMLSBoundary3D
  (unsigned n,int hdiv,uint4 nc,const int2 *begincell,int3 cellzero,const double2 *posxy,const double *posz,const unsigned *idp,const double3 *mirrorPos,const unsigned *mirrorCell,float4 *mls)
{
	unsigned p1=blockIdx.y*gridDim.x*blockDim.x + blockIdx.x*blockDim.x + threadIdx.x; //-Nº de la partícula //-NI of particle.
  if(p1<n){
		const double3 posmp1=make_double3(mirrorPos[p1].x,mirrorPos[p1].y,mirrorPos[p1].z);
		double b11=0.0; double b12=0.0; double b13=0.0; double b14=0.0;
		double b21=0.0; double b22=0.0; double b23=0.0; double b24=0.0;
		double b31=0.0; double b32=0.0; double b33=0.0; double b34=0.0;
		double b41=0.0; double b42=0.0; double b43=0.0; double b44=0.0;

		int cxini,cxfin,yini,yfin,zini,zfin;
		KerGetInteractionCells(mirrorCell[p1],hdiv,nc,cellzero,cxini,cxfin,yini,yfin,zini,zfin);
				
		for(int z=zini;z<zfin;z++){
			int zmod=(nc.w)*z+(nc.w*nc.z+1);//-Le suma Nct+1 que es la primera celda de fluido. //-Adds Nct + 1 which is the first cell fluid.	
			for(int y=yini;y<yfin;y++){
				int ymod=zmod+nc.x*y;
				unsigned pini,pfin=0;
				for(int x=cxini;x<cxfin;x++){
					int2 cbeg=begincell[x+ymod];
					if(cbeg.y){
						if(!pfin)pini=cbeg.x;
						pfin=cbeg.y;
					}
				}
				if(pfin) KerCalculateMLS3D<tker> (pini,pfin,posxy,posz,posmp1,CTE.massf,b11,b12,b13,b14,b22,b23,b24,b33,b34,b44);
			}
		}

		b21=b12; b31=b13; b32=b23; b41=b14; b42=b24; b43=b34;

		double det=0;
		det+=(b11*b22*b33*b44 + b11*b23*b34*b42 + b11*b24*b32*b43);
		det+=(b12*b21*b34*b43 + b12*b23*b31*b44 + b12*b24*b33*b41);
		det+=(b13*b21*b32*b44 + b13*b22*b34*b41 + b13*b24*b31*b42);
		det+=(b14*b21*b33*b42 + b14*b22*b31*b43 + b14*b23*b32*b41);
		det-=(b11*b22*b34*b43 + b11*b23*b32*b44 + b11*b24*b33*b42);
		det-=(b12*b21*b33*b44 + b12*b23*b34*b41 + b12*b24*b31*b43);
		det-=(b13*b21*b34*b42 + b13*b22*b31*b44 + b13*b24*b32*b41);
		det-=(b14*b21*b32*b43 + b14*b22*b33*b41 + b14*b23*b31*b42);

		if(det){
			mls[p1].w=float((b22*b33*b44+b23*b34*b42+b24*b32*b43-b22*b34*b43-b23*b32*b44-b24*b33*b42)/det);
			mls[p1].x=float((b21*b34*b43+b23*b31*b44+b24*b33*b41-b21*b33*b44-b23*b34*b41-b24*b31*b43)/det);
			mls[p1].y=float((b21*b32*b44+b22*b34*b41+b24*b31*b42-b21*b34*b42-b22*b31*b44-b24*b32*b41)/det);
			mls[p1].z=float((b21*b33*b42+b22*b31*b43+b23*b32*b41-b21*b32*b43-b22*b33*b41-b23*b31*b42)/det);
		}
	}
}

template<TpKernel tker> __device__ void KerCalculateMLS2D
  (const unsigned &pini,const unsigned &pfin,const double2 *posxy,const double *posz
	,const double3 posdp1,const float mass,double &b11,double &b12,double &b13,double &b22
	,double &b23,double &b33)
{
	const float volume=mass/CTE.rhopzero;
	for(int p2=pini;p2<pfin;p2++){
    float drx,dry,drz;
    KerGetParticlesDr(p2,posxy,posz,posdp1,drx,dry,drz);
    float rr2=drx*drx+dry*dry+drz*drz;
    if(rr2<=CTE.fourh2 && rr2>=ALMOSTZERO){
			float Wab;
			if(tker==KERNEL_Quintic) Wab=KerGetKernelQuinticWab(rr2);
			else if(tker==KERNEL_Wendland) Wab=KerGetKernelWendlandWab(rr2);

			const double temp=Wab*volume;
			b11+= temp;		b12+=drx*temp;			b13+=drz*temp;
										b22+=drx*drx*temp;	b23+=drx*drz*temp;
																				b33+=drz*drz*temp;
		}
	}
}

template<TpKernel tker> __global__ void KerMLSBoundary2D
  (unsigned n,int hdiv,uint4 nc,const int2 *begincell,int3 cellzero,const double2 *posxy,const double *posz,const unsigned *idp,const double3 *mirrorPos,const unsigned *mirrorCell,float4 *mls)
{
	unsigned p1=blockIdx.y*gridDim.x*blockDim.x + blockIdx.x*blockDim.x + threadIdx.x; //-Nº de la partícula //-NI of particle.
  if(p1<n){
		const double3 posmp1=make_double3(mirrorPos[p1].x,mirrorPos[p1].y,mirrorPos[p1].z);
		double b11 = 0.0; double b12 = 0.0; double b13 = 0.0;
		double b21 = 0.0; double b22 = 0.0; double b23 = 0.0;
		double b31 = 0.0; double b32 = 0.0; double b33 = 0.0;

		int cxini,cxfin,yini,yfin,zini,zfin;
		KerGetInteractionCells(mirrorCell[p1],hdiv,nc,cellzero,cxini,cxfin,yini,yfin,zini,zfin);
				
		for(int z=zini;z<zfin;z++){
			int zmod=(nc.w)*z+(nc.w*nc.z+1);//-Le suma Nct+1 que es la primera celda de fluido. //-Adds Nct + 1 which is the first cell fluid.	
			for(int y=yini;y<yfin;y++){
				int ymod=zmod+nc.x*y;
				unsigned pini,pfin=0;
				for(int x=cxini;x<cxfin;x++){
					int2 cbeg=begincell[x+ymod];
					if(cbeg.y){
						if(!pfin)pini=cbeg.x;
						pfin=cbeg.y;
					}
				}
				if(pfin) KerCalculateMLS2D<tker> (pini,pfin,posxy,posz,posmp1,CTE.massf,b11,b12,b13,b22,b23,b33);
			}
		}

		b21=b12; b31=b13; b32=b23;
		
		double det = (b11*b22*b33+b12*b23*b31+b21*b32*b13)-(b31*b22*b13+b21*b12*b33+b23*b32*b11);
		
		if(det){
			mls[p1].w=float((b22*b33-b23*b32)/det);
			mls[p1].x=-float((b21*b33-b23*b31)/det);
			mls[p1].y=0.0;
			mls[p1].z=float((b21*b32-b22*b31)/det);
		}
	}
}

//------------------------------------------------------------------------------
///  Inverse Kernel Correction Matrix
//------------------------------------------------------------------------------
__global__ void KerInverseKernelCor2D(unsigned n,float3 *dwxcorrg,float3 *dwzcorrg)
{
  unsigned p=blockIdx.y*gridDim.x*blockDim.x + blockIdx.x*blockDim.x + threadIdx.x; //-Nº de la partícula //-NI of the particle
  if(p<n){
		double3 dwx; dwx.x=dwxcorrg[p].x; dwx.y=dwxcorrg[p].y; dwx.z=dwxcorrg[p].z;
		double3 dwz; dwz.x=dwzcorrg[p].x; dwz.y=dwzcorrg[p].y; dwz.z=dwzcorrg[p].z;
		double det=dwx.x*dwz.z-dwz.x*dwx.z;
	
    if(det){
			det=1.0/(det+CTE.eta2);
      dwxcorrg[p].x=float(dwz.z*det);
	    dwxcorrg[p].z=-float(dwx.z*det); 
	    dwzcorrg[p].x=-float(dwz.x*det);
	    dwzcorrg[p].z=float(dwx.x*det);
	  }
  }
}

__global__ void KerInverseKernelCor3D(unsigned n,float3 *dwxcorrg,float3 *dwycorrg,float3 *dwzcorrg)
{
  unsigned p=blockIdx.y*gridDim.x*blockDim.x + blockIdx.x*blockDim.x + threadIdx.x; //-Nº de la partícula //-NI of the particle
  if(p<n){
		double3 dwx; dwx.x=dwxcorrg[p].x; dwx.y=dwxcorrg[p].y; dwx.z=dwxcorrg[p].z; //  dwx.x   dwx.y   dwx.z
		double3 dwy; dwy.x=dwycorrg[p].x; dwy.y=dwycorrg[p].y; dwy.z=dwycorrg[p].z; //  dwy.x   dwy.y   dwy.z
		double3 dwz; dwz.x=dwzcorrg[p].x; dwz.y=dwzcorrg[p].y; dwz.z=dwzcorrg[p].z; //  dwz.x   dwz.y   dwz.z

		double det=(dwx.x*dwy.y*dwz.z+dwx.y*dwy.z*dwz.x+dwy.x*dwz.y*dwx.z)-(dwz.x*dwy.y*dwx.z+dwy.x*dwx.y*dwz.z+dwy.z*dwz.y*dwx.x);

		if(det){
			det=1.0/(det+CTE.eta2);
			dwxcorrg[p].x=float((dwy.y*dwz.z-dwy.z*dwz.y)*det);
			dwxcorrg[p].y=-float((dwx.y*dwz.z-dwx.z*dwz.y)*det);
			dwxcorrg[p].z=float((dwx.y*dwy.z-dwx.z*dwy.y)*det);
			dwycorrg[p].x=-float((dwy.x*dwz.z-dwy.z*dwz.x)*det);
			dwycorrg[p].y=float((dwx.x*dwz.z-dwx.z*dwz.x)*det);
			dwycorrg[p].z=-float((dwx.x*dwy.z-dwx.z*dwy.x)*det);
			dwzcorrg[p].x=float((dwy.x*dwz.y-dwy.y*dwz.x)*det);
			dwzcorrg[p].y=-float((dwx.x*dwz.y-dwx.y*dwz.x)*det);
			dwzcorrg[p].z=float((dwx.x*dwy.y-dwx.y*dwy.x)*det);
		}
  }
}

//##############################################################################
//# Kernels para calculo de fuerzas (Pos-Double)
//# Kernels for calculating forces (Pos-Double)
//##############################################################################
//------------------------------------------------------------------------------
/// Realiza la interaccion de una particula con un conjunto de ellas. Bound-Fluid/Float
/// Interaction of a particle with a set of particles (Bound-Fluid).
//------------------------------------------------------------------------------
template<TpKernel tker> __device__ void KerCalculateMirrorVelBF
  (const unsigned &pini,const unsigned &pfin,const double2 *posxy,const double *posz
	,const float mass,float4 *velrhop,double3 posdp1,double3 &Sum,float &divrp1,const float4 mlsp1, unsigned &rowCount)
{
	const float volume=mass/CTE.rhopzero;
	for(int p2=pini;p2<pfin;p2++){
    float drx,dry,drz;
    KerGetParticlesDr(p2,posxy,posz,posdp1,drx,dry,drz);
    float rr2=drx*drx+dry*dry+drz*drz;
    if(rr2<=CTE.fourh2 && rr2>=ALMOSTZERO){
			//-Wendland kernel
      float frx,fry,frz;
      if(tker==KERNEL_Quintic) KerGetKernelQuintic(rr2,drx,dry,drz,frx,fry,frz);
			else if(tker==KERNEL_Wendland) KerGetKernelWendland(rr2,drx,dry,drz,frx,fry,frz);
			const float rDivW=drx*frx+dry*fry+drz*frz;//R.Div(W)
			divrp1-=volume*rDivW;
			const float4 velrhop2=velrhop[p2];
			float Wab;
			if(tker==KERNEL_Quintic) Wab=KerGetKernelQuinticWab(rr2);
			else if(tker==KERNEL_Wendland) Wab=KerGetKernelWendlandWab(rr2);
			const float temp=(mlsp1.w+mlsp1.x*drx+mlsp1.y*dry+mlsp1.z*drz)*Wab;
			Sum.x+=velrhop2.x*temp*volume;
			Sum.y+=velrhop2.y*temp*volume;
			Sum.z+=velrhop2.z*temp*volume;
			rowCount++;
		}
	}
}

template<TpKernel tker> __device__ void KerCalculateMirrorVelBB
  (const unsigned &pini,const unsigned &pfin,const double2 *posxy,const double *posz
	,const float mass,double3 posdp1,float &divrp1)
{
	const float volume=mass/CTE.rhopzero;
	for(int p2=pini;p2<pfin;p2++){
    float drx,dry,drz;
    KerGetParticlesDr(p2,posxy,posz,posdp1,drx,dry,drz);
    float rr2=drx*drx+dry*dry+drz*drz;
    if(rr2<=CTE.fourh2 && rr2>=ALMOSTZERO){
			//-Wendland kernel
      float frx,fry,frz;
      if(tker==KERNEL_Quintic) KerGetKernelQuintic(rr2,drx,dry,drz,frx,fry,frz);
			else if(tker==KERNEL_Wendland) KerGetKernelWendland(rr2,drx,dry,drz,frx,fry,frz);
			const float rDivW=drx*frx+dry*fry+drz*frz;//R.Div(W)
			divrp1-=volume*rDivW;
		}
	}
}

//------------------------------------------------------------------------------
/// Realiza interaccion entre particulas. Bound-Fluid/Float
/// Particle interaction. Bound-Fluid/Float
//------------------------------------------------------------------------------
template<TpKernel tker> __global__ void KerInteractionForcesBound
  (bool simulate2d,TpSlipCond tslipcond,unsigned n,int hdiv,uint4 nc,const int2 *begincell,int3 cellzero,const unsigned *dcell,const float *ftomassp
	,const double2 *posxy,const double *posz,float4 *velrhop,const word *code,const unsigned *idp,float *divr,const double3 *mirrorPos,const unsigned *mirrorCell
	,const float4 *mls,unsigned *row,const tdouble3 PistonPos,const tdouble3 TankDim,const float freesurface)
{
  unsigned p1=blockIdx.y*gridDim.x*blockDim.x + blockIdx.x*blockDim.x + threadIdx.x; //-Nº de la partícula //-NI of particle.
  if(p1<n){
		//-Carga datos de particula p1.
		//-Loads particle p1 data.
    double3 posdp1;
    float3 velp1;
    KerGetParticleData(p1,posxy,posz,velrhop,velp1,posdp1);
		double3 Sum=make_double3(0,0,0);
		float divrp1=0;
		const float4 mlsp1=mls[p1];
		unsigned rowCount=0;
		const double3 posmp1=make_double3(mirrorPos[p1].x,mirrorPos[p1].y,mirrorPos[p1].z);
			
		int cxini,cxfin,yini,yfin,zini,zfin;
		KerGetInteractionCells(mirrorCell[p1],hdiv,nc,cellzero,cxini,cxfin,yini,yfin,zini,zfin);
				
		for(int z=zini;z<zfin;z++){
			int zmod=(nc.w)*z+(nc.w*nc.z+1);//-Le suma Nct+1 que es la primera celda de fluido. //-Adds Nct + 1 which is the first cell fluid.	
			for(int y=yini;y<yfin;y++){
				int ymod=zmod+nc.x*y;
				unsigned pini,pfin=0;
				for(int x=cxini;x<cxfin;x++){
					int2 cbeg=begincell[x+ymod];
					if(cbeg.y){
						if(!pfin)pini=cbeg.x;
						pfin=cbeg.y;
					}
				}
				if(pfin) KerCalculateMirrorVelBF<tker> (pini,pfin,posxy,posz,CTE.massf,velrhop,posmp1,Sum,divrp1,mlsp1,rowCount);
			}
		}

		for(int z=zini;z<zfin;z++){
			int zmod=(nc.w)*z;//-Le suma Nct+1 que es la primera celda de fluido. //-Adds Nct + 1 which is the first cell fluid.	
			for(int y=yini;y<yfin;y++){
				int ymod=zmod+nc.x*y;
				unsigned pini,pfin=0;
				for(int x=cxini;x<cxfin;x++){
					int2 cbeg=begincell[x+ymod];
					if(cbeg.y){
						if(!pfin)pini=cbeg.x;
						pfin=cbeg.y;
					}
				}
				if(pfin) KerCalculateMirrorVelBB<tker> (pini,pfin,posxy,posz,CTE.massb,posmp1,divrp1);
			}
		}


		divr[p1]=divrp1;
		row[p1+1]=(divrp1>freesurface?rowCount:0);

		if(tslipcond==SLIPCOND_Slip){
			float3 NormDir=make_float3(0,0,0), NormVel=make_float3(0,0,0), TangVel=make_float3(0,0,0);
			NormDir.x=float(posmp1.x-posxy[p1].x);
			if(!simulate2d)NormDir.y=float(posmp1.y-posxy[p1].y);
			NormDir.z=float(posmp1.z-posz[p1]);

			float MagNorm=NormDir.x*NormDir.x+NormDir.y*NormDir.y+NormDir.z*NormDir.z;
			if(MagNorm){MagNorm=sqrtf(MagNorm); NormDir.x=NormDir.x/MagNorm; NormDir.y=NormDir.y/MagNorm; NormDir.z=NormDir.z/MagNorm;}
		
			float NormProdVel=Sum.x*NormDir.x+Sum.y*NormDir.y+Sum.z*NormDir.z;

			NormVel.x=NormDir.x*NormProdVel;
			NormVel.y=NormDir.y*NormProdVel;
			NormVel.z=NormDir.z*NormProdVel;
			TangVel.x=Sum.x-NormVel.x;
			TangVel.y=Sum.y-NormVel.y;
			TangVel.z=Sum.z-NormVel.z;

			if(simulate2d){
				if(posz[p1]<PistonPos.z&&(posxy[p1].x<PistonPos.x||posxy[p1].x>TankDim.x)){
					velrhop[p1].x=2.0f*velrhop[p1].x-Sum.x;
					velrhop[p1].z=2.0f*velrhop[p1].z-Sum.z;
				}
				else{
					velrhop[p1].x=2.0f*velrhop[p1].x+TangVel.x-NormVel.x;
					velrhop[p1].z=2.0f*velrhop[p1].z+TangVel.z-NormVel.z;
				}
			}
			else{
				if(posz[p1]>PistonPos.z&&((posxy[p1].x>PistonPos.x&&posxy[p1].x<TankDim.x)||(posxy[p1].y>PistonPos.y&&posxy[p1].y<TankDim.y))){
					velrhop[p1].x=2.0f*velrhop[p1].x+TangVel.x-NormVel.x;
					velrhop[p1].y=2.0f*velrhop[p1].y+TangVel.y-NormVel.y;
					velrhop[p1].z=2.0f*velrhop[p1].z+TangVel.z-NormVel.z;
				}
				else if(posz[p1]<PistonPos.z&&posxy[p1].x>PistonPos.x&&posxy[p1].x<TankDim.x&&posxy[p1].y>PistonPos.y&&posxy[p1].y<TankDim.y){
					velrhop[p1].x=2.0f*velrhop[p1].x+TangVel.x-NormVel.x;
					velrhop[p1].y=2.0f*velrhop[p1].y+TangVel.y-NormVel.y;
					velrhop[p1].z=2.0f*velrhop[p1].z+TangVel.z-NormVel.z;
				}
				else{
					velrhop[p1].x=2.0f*velrhop[p1].x-Sum.x;
					velrhop[p1].y=2.0f*velrhop[p1].y-Sum.y;
					velrhop[p1].z=2.0f*velrhop[p1].z-Sum.z;
				}
			}
		}
		else if(tslipcond==SLIPCOND_NoSlip){
			if(CODE_GetType(code[p1])==CODE_TYPE_MOVING){
				float3 NormDir=make_float3(0,0,0), NormVel=make_float3(0,0,0), TangVel=make_float3(0,0,0);
				NormDir.x=float(posmp1.x-posxy[p1].x);
				if(!simulate2d)NormDir.y=float(posmp1.y-posxy[p1].y);
				NormDir.z=float(posmp1.z-posz[p1]);

				float MagNorm=NormDir.x*NormDir.x+NormDir.y*NormDir.y+NormDir.z*NormDir.z;
				if(MagNorm){MagNorm=sqrtf(MagNorm); NormDir.x=NormDir.x/MagNorm; NormDir.y=NormDir.y/MagNorm; NormDir.z=NormDir.z/MagNorm;}
		
				float NormProdVel=Sum.x*NormDir.x+Sum.y*NormDir.y+Sum.z*NormDir.z;

				NormVel.x=NormDir.x*NormProdVel;
				NormVel.y=NormDir.y*NormProdVel;
				NormVel.z=NormDir.z*NormProdVel;
				TangVel.x=Sum.x-NormVel.x;
				TangVel.y=Sum.y-NormVel.y;
				TangVel.z=Sum.z-NormVel.z;
				velrhop[p1].x=2.0f*velrhop[p1].x+TangVel.x-NormVel.x;
				velrhop[p1].y=2.0f*velrhop[p1].y+TangVel.y-NormVel.y;
				velrhop[p1].z=2.0f*velrhop[p1].z+TangVel.z-NormVel.z;
			}
			else if(posz[p1]>PistonPos.z&&posxy[p1].x>PistonPos.x&&posxy[p1].x<TankDim.x&&(posxy[p1].y<PistonPos.y||posxy[p1].y>TankDim.y)){
				float3 NormDir=make_float3(0,0,0), NormVel=make_float3(0,0,0), TangVel=make_float3(0,0,0);
				NormDir.x=float(posmp1.x-posxy[p1].x);
				if(!simulate2d)NormDir.y=float(posmp1.y-posxy[p1].y);
				NormDir.z=float(posmp1.z-posz[p1]);

				float MagNorm=NormDir.x*NormDir.x+NormDir.y*NormDir.y+NormDir.z*NormDir.z;
				if(MagNorm){MagNorm=sqrtf(MagNorm); NormDir.x=NormDir.x/MagNorm; NormDir.y=NormDir.y/MagNorm; NormDir.z=NormDir.z/MagNorm;}
		
				float NormProdVel=Sum.x*NormDir.x+Sum.y*NormDir.y+Sum.z*NormDir.z;

				NormVel.x=NormDir.x*NormProdVel;
				NormVel.y=NormDir.y*NormProdVel;
				NormVel.z=NormDir.z*NormProdVel;
				TangVel.x=Sum.x-NormVel.x;
				TangVel.y=Sum.y-NormVel.y;
				TangVel.z=Sum.z-NormVel.z;
				velrhop[p1].x=2.0f*velrhop[p1].x+TangVel.x-NormVel.x;
				velrhop[p1].y=2.0f*velrhop[p1].y+TangVel.y-NormVel.y;
				velrhop[p1].z=2.0f*velrhop[p1].z+TangVel.z-NormVel.z;
			}
			else{
				velrhop[p1].x=2.0f*velrhop[p1].x-Sum.x;
				velrhop[p1].y=2.0f*velrhop[p1].y-Sum.y;
				velrhop[p1].z=2.0f*velrhop[p1].z-Sum.z;
			}
		}
	}
}

template<TpKernel tker> __device__ void KerCorrectDivr
   (const unsigned &pini,const unsigned &pfin,const double2 *posxy,const double *posz
 	,const float mass,double3 posdp1,float &divrp1,const float *divr,const float boundaryfs)
 {
 	const float volume=mass/CTE.rhopzero;
 	for(int p2=pini;p2<pfin;p2++)if(divr[p2]<boundaryfs){
     float drx,dry,drz;
     KerGetParticlesDr(p2,posxy,posz,posdp1,drx,dry,drz);
     float rr2=drx*drx+dry*dry+drz*drz;
     if(rr2<=CTE.fourh2 && rr2>=ALMOSTZERO){
 			//-Wendland kernel
       float frx,fry,frz;
       if(tker==KERNEL_Quintic) KerGetKernelQuintic(rr2,drx,dry,drz,frx,fry,frz);
 			else if(tker==KERNEL_Wendland) KerGetKernelWendland(rr2,drx,dry,drz,frx,fry,frz);
 			const float rDivW=drx*frx+dry*fry+drz*frz;//R.Div(W)
 			divrp1+=volume*rDivW;
 		}
 	}
 }

 template<TpKernel tker> __global__ void KerInteractionCorrectBoundDivr
   (unsigned n,int hdiv,uint4 nc,const int2 *begincell,int3 cellzero,const double2 *posxy,const double *posz,const unsigned *idp,
 	float *divr,const double3 *mirrorPos,const unsigned *mirrorCell,const float boundaryfs)
 {
   unsigned p1=blockIdx.y*gridDim.x*blockDim.x + blockIdx.x*blockDim.x + threadIdx.x; //-Nº de la partícula //-NI of particle.
   if(p1<n){
 		//-Carga datos de particula p1.
 		//-Loads particle p1 data.
     double3 posdp1;
     KerGetParticleData(p1,posxy,posz,posdp1);
 		float divrp1=divr[p1];
 		const double3 posmp1=make_double3(mirrorPos[p1].x,mirrorPos[p1].y,mirrorPos[p1].z);
 			
 		int cxini,cxfin,yini,yfin,zini,zfin;
 		KerGetInteractionCells(mirrorCell[p1],hdiv,nc,cellzero,cxini,cxfin,yini,yfin,zini,zfin);
 				
 		for(int z=zini;z<zfin;z++){
 			int zmod=(nc.w)*z;	
 			for(int y=yini;y<yfin;y++){
 				int ymod=zmod+nc.x*y;
 				unsigned pini,pfin=0;
 				for(int x=cxini;x<cxfin;x++){
 					int2 cbeg=begincell[x+ymod];
 					if(cbeg.y){
 						if(!pfin)pini=cbeg.x;
 						pfin=cbeg.y;
 					}
 				}
 				if(pfin) KerCorrectDivr<tker> (pini,pfin,posxy,posz,CTE.massb,posmp1,divrp1,divr,boundaryfs);
 			}
 		}
 
 		divr[p1]=divrp1;
 	}
 }
				
//------------------------------------------------------------------------------
/// Realiza la interaccion de una particula con un conjunto de ellas. (Fluid/Float-Fluid/Float/Bound)
/// Interaction of a particle with a set of particles. (Fluid/Float-Fluid/Float/Bound)
//------------------------------------------------------------------------------
template<TpKernel tker,TpFtMode ftmode> __device__ void KerInteractionForcesViscCalc
  (bool boundp2,unsigned p1,const unsigned &pini,const unsigned &pfin,float visco,const float *ftomassp,const double2 *posxy,const double *posz
	,const float4 *velrhop,float massp2,float ftmassp1,bool ftp1,double3 posdp1,float3 velp1,float3 &acep1
	,float &divrp1,double3 &dwxp1,double3 &dwyp1,double3 &dwzp1,unsigned &rowCount,const float *divr,const float boundaryfs)
{
	const float volume=massp2/CTE.rhopzero; //Volume of particle j 
  for(int p2=pini;p2<pfin;p2++)if(!(boundp2&&divr[p2]<boundaryfs)){
    float drx,dry,drz;
    KerGetParticlesDr(p2,posxy,posz,posdp1,drx,dry,drz);
    float rr2=drx*drx+dry*dry+drz*drz;
    if(rr2<=CTE.fourh2 && rr2>=ALMOSTZERO){
      //-Wendland kernel.
      float frx,fry,frz;
      if(tker==KERNEL_Quintic) KerGetKernelQuintic(rr2,drx,dry,drz,frx,fry,frz);
			else if(tker==KERNEL_Wendland) KerGetKernelWendland(rr2,drx,dry,drz,frx,fry,frz);
	  
      //-Obtiene masa de particula p2 en caso de existir floatings.
	  //-Obtains mass of particle p2 if any floating bodies exist.
      //bool ftp2;         //-Indica si es floating. //-indicates if it is floating.
      //float ftmassp2;    //-Contiene masa de particula floating o massp2 si es bound o fluid. //-Contains mass of floating body or massf if fluid.
      /*if(USE_FLOATING){
        const word cod=code[p2];
        ftp2=(CODE_GetType(cod)==CODE_TYPE_FLOATING);
        ftmassp2=(ftp2? ftomassp[CODE_GetTypeValue(cod)]: massp2);
        if(ftp2 && (tdelta==DELTA_Dynamic || tdelta==DELTA_DynamicExt))deltap1=FLT_MAX;
        if(ftp2 && shift && tshifting==SHIFT_NoBound)shiftposp1.x=FLT_MAX; //-Con floatings anula shifting. //-Cancels shifting with floating bodies
        compute=!(USE_DEM && ftp1 && (boundp2 || ftp2)); //-Se desactiva cuando se usa DEM y es float-float o float-bound. //-Deactivated when DEM is used and is float-float or float-bound.
      }*/

      const float4 velrhop2=velrhop[p2];
      
      //===== Aceleration ===== 
		  const float rDivW=drx*frx+dry*fry+drz*frz;//R.Div(W)
		  const float temp=volume*2.0f*visco*rDivW/(rr2+CTE.eta2);
	    const float dvx=velp1.x-velrhop2.x, dvy=velp1.y-velrhop2.y, dvz=velp1.z-velrhop2.z;
      acep1.x+=temp*dvx; acep1.y+=temp*dvy; acep1.z+=temp*dvz;

			divrp1-=volume*rDivW;

			dwxp1.x-=volume*frx*drx; dwxp1.y-=volume*frx*dry; dwxp1.z-=volume*frx*drz;
			dwyp1.x-=volume*fry*drx; dwyp1.y-=volume*fry*dry; dwyp1.z-=volume*fry*drz;
			dwzp1.x-=volume*frz*drx; dwzp1.y-=volume*frz*dry; dwzp1.z-=volume*frz*drz;
			rowCount++;
		}
  }
}

template<TpKernel tker,TpFtMode ftmode> __global__ void KerInteractionForcesVisc
  (unsigned npf,unsigned npb,int hdiv,uint4 nc,unsigned cellfluid,float viscob,float viscof,const int2 *begincell,int3 cellzero,const unsigned *dcell,const float *ftomassp
	,const double2 *posxy,const double *posz,const float4 *velrhop,const word *code,float3 *dwxcorrg,float3 *dwycorrg,float3 *dwzcorrg,float3 *ace,float *divr,unsigned *row
	,const unsigned matOrder,const float boundaryfs,const float freesurface)
{
  unsigned p=blockIdx.y*gridDim.x*blockDim.x + blockIdx.x*blockDim.x + threadIdx.x; //-Nº de la partícula //-NI of the particle
  if(p<npf){
    unsigned p1=p+npb;      //-Nº de particula. //-NI of particle
		const unsigned Correctp1=p;
		float divrp1=0.0;
    float3 acep1=make_float3(0,0,0);
		double3 dwxp1=make_double3(0,0,0); double3 dwyp1=make_double3(0,0,0); double3 dwzp1=make_double3(0,0,0);
		unsigned rowCount=0; 
		//-Obtiene datos de particula p1 en caso de existir floatings.
	//-Obtains data of particle p1 in case there are floating bodies.
    bool ftp1;       //-Indica si es floating. //-Indicates if it is floating.
    float ftmassp1;  //-Contiene masa de particula floating o 1.0f si es fluid. //-Contains floating particle mass or 1.0f if it is fluid.
    if(USE_FLOATING){
      const word cod=code[p1];
      ftp1=(CODE_GetType(cod)==CODE_TYPE_FLOATING);
      ftmassp1=(ftp1? ftomassp[CODE_GetTypeValue(cod)]: 1.f);
      //if(ftp1 && (tdelta==DELTA_Dynamic || tdelta==DELTA_DynamicExt))deltap1=FLT_MAX;
      //if(ftp1 && shift)shiftposp1.x=FLT_MAX;  //-Para floatings no se calcula shifting. //-Shifting is not calculated for floating bodies.
    }

    //-Obtiene datos basicos de particula p1.
	//-Obtains basic data of particle p1.
    double3 posdp1;
    float3 velp1;
    KerGetParticleData(p1,posxy,posz,velrhop,velp1,posdp1);
    //-Obtiene limites de interaccion
	//-Obtains interaction limits
    int cxini,cxfin,yini,yfin,zini,zfin;
    KerGetInteractionCells(dcell[p1],hdiv,nc,cellzero,cxini,cxfin,yini,yfin,zini,zfin);

    //-Interaccion con Fluidas.
	//-Interaction with fluids.
    for(int z=zini;z<zfin;z++){
      int zmod=(nc.w)*z+cellfluid; //-Le suma donde empiezan las celdas de fluido. //-The sum showing where fluid cells start
      for(int y=yini;y<yfin;y++){
        int ymod=zmod+nc.x*y;
        unsigned pini,pfin=0;
        for(int x=cxini;x<cxfin;x++){
          int2 cbeg=begincell[x+ymod];
          if(cbeg.y){
            if(!pfin)pini=cbeg.x;
            pfin=cbeg.y;
          }
        }
        if(pfin){
					KerInteractionForcesViscCalc<tker,ftmode> (false,p1,pini,pfin,viscof,ftomassp,posxy,posz,velrhop,CTE.massf,ftmassp1,ftp1,posdp1,velp1,acep1,divrp1,dwxp1,dwyp1,dwzp1,rowCount,divr,boundaryfs);
				}
			}
    }

    float3 r=ace[Correctp1]; 
		r.x+=acep1.x; r.y+=acep1.y; r.z+=acep1.z;
		acep1=make_float3(0,0,0);  

		divr[p1]+=divrp1;
		divrp1=0;

		float3 dwxr=dwxcorrg[Correctp1]; float3 dwyr=dwycorrg[Correctp1]; float3 dwzr=dwzcorrg[Correctp1];
		dwxr.x+=float(dwxp1.x); dwxr.y+=float(dwxp1.y); dwxr.z+=float(dwxp1.z); 
		dwyr.x+=float(dwyp1.x); dwyr.y+=float(dwyp1.y); dwyr.z+=float(dwyp1.z); 
		dwzr.x+=float(dwzp1.x); dwzr.y+=float(dwzp1.y); dwzr.z+=float(dwzp1.z); 
		dwxp1=make_double3(0,0,0); dwyp1=make_double3(0,0,0); dwzp1=make_double3(0,0,0);

    //-Interaccion con contorno.
	//-Interaction with boundaries.
    for(int z=zini;z<zfin;z++){
      int zmod=(nc.w)*z;
      for(int y=yini;y<yfin;y++){
        int ymod=zmod+nc.x*y;
        unsigned pini,pfin=0;
        for(int x=cxini;x<cxfin;x++){
          int2 cbeg=begincell[x+ymod];
          if(cbeg.y){
            if(!pfin)pini=cbeg.x;
            pfin=cbeg.y;
          }
        }
        if(pfin){
		  		KerInteractionForcesViscCalc<tker,ftmode> (true,p1,pini,pfin,viscob,ftomassp,posxy,posz,velrhop,CTE.massf,ftmassp1,ftp1,posdp1,velp1,acep1,divrp1,dwxp1,dwyp1,dwzp1,rowCount,divr,boundaryfs);
				}
      }
    }

    r.x+=acep1.x; r.y+=acep1.y; r.z+=acep1.z;
		ace[Correctp1]=r;

		divr[p1]+=divrp1;
		row[p1-matOrder+1]=(divr[p1]>freesurface?rowCount:0);
		dwxr.x+=float(dwxp1.x); dwxr.y+=float(dwxp1.y); dwxr.z+=float(dwxp1.z); 
		dwyr.x+=float(dwyp1.x); dwyr.y+=float(dwyp1.y); dwyr.z+=float(dwyp1.z); 
		dwzr.x+=float(dwzp1.x); dwzr.y+=float(dwzp1.y); dwzr.z+=float(dwzp1.z); 
		dwxcorrg[Correctp1]=dwxr; dwycorrg[Correctp1]=dwyr; dwzcorrg[Correctp1]=dwzr;
  }
}

template<TpKernel tker,TpFtMode ftmode> __device__ void KerViscousSchwaigerCalc
  (bool boundp2,const unsigned &pini,const unsigned &pfin,const float *ftomassp,const double2 *posxy,const double *posz,const float4 *velrhop
	,float massp2,float ftmassp1,bool ftp1,double3 posdp1,float3 velp1,double3 &sumfr,double3 &dud,double3 &dvd
	,double3 &dwd,float3 dwxp1,float3 dwyp1,float3 dwzp1,const float *divr,const float boundaryfs,double3 &taop1)
{
	const float volume=massp2/CTE.rhopzero; //Volume of particle j 

  for(int p2=pini;p2<pfin;p2++)if(!(boundp2&&divr[p2]<boundaryfs)){
    float drx,dry,drz;
    KerGetParticlesDr(p2,posxy,posz,posdp1,drx,dry,drz);
    float rr2=drx*drx+dry*dry+drz*drz;
    if(rr2<=CTE.fourh2 && rr2>=ALMOSTZERO){
      //-Wendland kernel.
      float frx,fry,frz;
      if(tker==KERNEL_Quintic) KerGetKernelQuintic(rr2,drx,dry,drz,frx,fry,frz);
			else if(tker==KERNEL_Wendland) KerGetKernelWendland(rr2,drx,dry,drz,frx,fry,frz);
			const float rDivW=drx*frx+dry*fry+drz*frz;//R.Div(W)
			const float taotemp=volume*rDivW/(rr2+CTE.eta2);
			taop1.x+=taotemp*drx*drx; taop1.y+=taotemp*dry*dry; taop1.z+=taotemp*drz*drz;
			sumfr.x+=volume*frx; sumfr.y+=volume*fry; sumfr.z+=volume*frz;
      //-Obtiene masa de particula p2 en caso de existir floatings.
			//-Obtains mass of particle p2 if any floating bodies exist.
      //bool ftp2;         //-Indica si es floating. //-indicates if it is floating.
      //float ftmassp2;    //-Contiene masa de particula floating o massp2 si es bound o fluid. //-Contains mass of floating body or massf if fluid.
      /*if(USE_FLOATING){
        const word cod=code[p2];
        ftp2=(CODE_GetType(cod)==CODE_TYPE_FLOATING);
        ftmassp2=(ftp2? ftomassp[CODE_GetTypeValue(cod)]: massp2);
        if(ftp2 && (tdelta==DELTA_Dynamic || tdelta==DELTA_DynamicExt))deltap1=FLT_MAX;
        if(ftp2 && shift && tshifting==SHIFT_NoBound)shiftposp1.x=FLT_MAX; //-Con floatings anula shifting. //-Cancels shifting with floating bodies
        compute=!(USE_DEM && ftp1 && (boundp2 || ftp2)); //-Se desactiva cuando se usa DEM y es float-float o float-bound. //-Deactivated when DEM is used and is float-float or float-bound.
      }*/
			
      const float4 velrhop2=velrhop[p2];
	    const float dvx=velp1.x-velrhop2.x, dvy=velp1.y-velrhop2.y, dvz=velp1.z-velrhop2.z;

			float temp_x=frx*dwxp1.x+fry*dwyp1.x+frz*dwzp1.x; temp_x=temp_x*volume;
      float temp_y=frx*dwxp1.y+fry*dwyp1.y+frz*dwzp1.y; temp_y=temp_y*volume;
		  float temp_z=frx*dwxp1.z+fry*dwyp1.z+frz*dwzp1.z; temp_z=temp_z*volume;
			
			dud.x+=dvx*temp_x; dud.y+=dvx*temp_y; dud.z+=dvx*temp_z;
			dvd.x+=dvy*temp_x; dvd.y+=dvy*temp_y; dvd.z+=dvy*temp_z;
			dwd.x+=dvz*temp_x; dwd.y+=dvz*temp_y; dwd.z+=dvz*temp_z;
		}
  }
}

template<TpKernel tker,TpFtMode ftmode> __global__ void KerViscousSchwaiger
  (const bool simulate2d,unsigned npf,unsigned npb,int hdiv,uint4 nc,unsigned cellfluid,float viscob,float viscof,const int2 *begincell,int3 cellzero,const unsigned *dcell
  ,const float *ftomassp,const double2 *posxy,const double *posz,const float4 *velrhop,const word *code,float3 *dwxcorrg,float3 *dwycorrg
	,float3 *dwzcorrg,float3 *ace,float3 *SumFr,const float *divr,const float boundaryfs,const float freesurface,float *tao)
{
  unsigned p=blockIdx.y*gridDim.x*blockDim.x + blockIdx.x*blockDim.x + threadIdx.x; //-Nº de la partícula //-NI of the particle
  if(p<npf){
    unsigned p1=p+npb;      //-Nº de particula. //-NI of particle
		const unsigned Correctp1=p;
		double3 sumfr=make_double3(0,0,0);
		double3 taop1=make_double3(0,0,0);
    double3 dud=make_double3(0,0,0);
		double3 dvd=make_double3(0,0,0);
		double3 dwd=make_double3(0,0,0);
		float3 dwxp1=dwxcorrg[Correctp1];
		float3 dwyp1=dwycorrg[Correctp1];
		float3 dwzp1=dwzcorrg[Correctp1];
		//-Obtiene datos de particula p1 en caso de existir floatings.
	//-Obtains data of particle p1 in case there are floating bodies.
    bool ftp1;       //-Indica si es floating. //-Indicates if it is floating.
    float ftmassp1;  //-Contiene masa de particula floating o 1.0f si es fluid. //-Contains floating particle mass or 1.0f if it is fluid.
    if(USE_FLOATING){
      const word cod=code[p1];
      ftp1=(CODE_GetType(cod)==CODE_TYPE_FLOATING);
      ftmassp1=(ftp1? ftomassp[CODE_GetTypeValue(cod)]: 1.f);
      //if(ftp1 && (tdelta==DELTA_Dynamic || tdelta==DELTA_DynamicExt))deltap1=FLT_MAX;
      //if(ftp1 && shift)shiftposp1.x=FLT_MAX;  //-Para floatings no se calcula shifting. //-Shifting is not calculated for floating bodies.
    }

    //-Obtiene datos basicos de particula p1.
	//-Obtains basic data of particle p1.
    double3 posdp1;
    float3 velp1;
    KerGetParticleData(p1,posxy,posz,velrhop,velp1,posdp1);
    //-Obtiene limites de interaccion
	//-Obtains interaction limits
    int cxini,cxfin,yini,yfin,zini,zfin;
    KerGetInteractionCells(dcell[p1],hdiv,nc,cellzero,cxini,cxfin,yini,yfin,zini,zfin);

    //-Interaccion con Fluidas.
	//-Interaction with fluids.
    for(int z=zini;z<zfin;z++){
      int zmod=(nc.w)*z+cellfluid; //-Le suma donde empiezan las celdas de fluido. //-The sum showing where fluid cells start
      for(int y=yini;y<yfin;y++){
        int ymod=zmod+nc.x*y;
        unsigned pini,pfin=0;
        for(int x=cxini;x<cxfin;x++){
          int2 cbeg=begincell[x+ymod];
          if(cbeg.y){
            if(!pfin)pini=cbeg.x;
            pfin=cbeg.y;
          }
        }
        if(pfin) KerViscousSchwaigerCalc<tker,ftmode> (false,pini,pfin,ftomassp,posxy,posz,velrhop,CTE.massf,ftmassp1,ftp1,posdp1,velp1,sumfr,dud,dvd,dwd,dwxp1,dwyp1,dwzp1,divr,boundaryfs,taop1);
			}
    }

    //-Interaccion con contorno.
		//-Interaction with boundaries.
    for(int z=zini;z<zfin;z++){
      int zmod=(nc.w)*z;
      for(int y=yini;y<yfin;y++){
        int ymod=zmod+nc.x*y;
        unsigned pini,pfin=0;
        for(int x=cxini;x<cxfin;x++){
          int2 cbeg=begincell[x+ymod];
          if(cbeg.y){
            if(!pfin)pini=cbeg.x;
            pfin=cbeg.y;
          }
        }
        if(pfin) KerViscousSchwaigerCalc<tker,ftmode> (true,pini,pfin,ftomassp,posxy,posz,velrhop,CTE.massb,ftmassp1,ftp1,posdp1,velp1,sumfr,dud,dvd,dwd,dwxp1,dwyp1,dwzp1,divr,boundaryfs,taop1);
      }
    }
    //-Almacena resultados.
	//-Stores results.
		double mu2=2.0*viscof;
    float3 r=ace[Correctp1]; 
    r.x-=mu2*(dud.x*sumfr.x+dud.y*sumfr.y+dud.z*sumfr.z); 
		r.y-=mu2*(dvd.x*sumfr.x+dvd.y*sumfr.y+dvd.z*sumfr.z); 
		r.z-=mu2*(dwd.x*sumfr.x+dwd.y*sumfr.y+dwd.z*sumfr.z);
		taop1.x=1.0/(taop1.x+CTE.eta2); taop1.z=1.0/(taop1.z+CTE.eta2);
		if(!simulate2d) taop1.y=1.0/(taop1.y+CTE.eta2);
		double dimension=(simulate2d?2.0:3.0);
		double taoFinal=-(taop1.x+taop1.y+taop1.z)/dimension;
    ace[Correctp1]=r;
		if(divr[p1]>freesurface){ ace[Correctp1].x=ace[Correctp1].x*taoFinal; ace[Correctp1].z=ace[Correctp1].z*taoFinal;}
		tao[Correctp1]=float(taoFinal);
		SumFr[Correctp1].x+=float(sumfr.x); SumFr[Correctp1].y+=float(sumfr.y); SumFr[Correctp1].z+=float(sumfr.z);
	}
}

//==============================================================================
/// Collects kernel information.
//==============================================================================
template<TpKernel tker,TpFtMode ftmode> void Stage1Interaction_ForcesT_KerInfoPre(StKerInfo *kerinfo)
{
	#if CUDART_VERSION >= 6050
  {
    typedef void (*fun_ptr)(unsigned,unsigned,int,uint4,unsigned,float,float,const int2*,int3,const unsigned*,const float*,const double2*,const double*
			,const float4*,const word*,float3*,float3*,float3*,float3*,float*,unsigned*,const unsigned,const float,const float);
    fun_ptr ptr=&KerInteractionForcesVisc<tker,ftmode>;
    int qblocksize=0,mingridsize=0;
    cudaOccupancyMaxPotentialBlockSize(&mingridsize,&qblocksize,(void*)ptr,0,0);
    struct cudaFuncAttributes attr;
    cudaFuncGetAttributes(&attr,(void*)ptr);
    kerinfo->forcesfluid_bs=qblocksize;
    kerinfo->forcesfluid_rg=attr.numRegs;
    kerinfo->forcesfluid_bsmax=attr.maxThreadsPerBlock;
    //printf(">> KerInteractionForcesFluid  blocksize:%u (%u)\n",qblocksize,0);
  }
  {
    typedef void (*fun_ptr)(bool,TpSlipCond,unsigned,int,uint4,const int2*,int3,const unsigned*,const float*,const double2*,const double*,float4*,const word*
			,const unsigned*,float*,const double3*,const unsigned*,const float4*,unsigned*,const tdouble3,const tdouble3,const float);
    fun_ptr ptr=&KerInteractionForcesBound<tker>;
    int qblocksize=0,mingridsize=0;
    cudaOccupancyMaxPotentialBlockSize(&mingridsize,&qblocksize,(void*)ptr,0,0);
    struct cudaFuncAttributes attr;
    cudaFuncGetAttributes(&attr,(void*)ptr);
    kerinfo->forcesbound_bs=qblocksize;
    kerinfo->forcesbound_rg=attr.numRegs;
    kerinfo->forcesbound_bsmax=attr.maxThreadsPerBlock;
    //printf(">> KerInteractionForcesBound  blocksize:%u (%u)\n",qblocksize,0);
  }
  CheckErrorCuda("Error collecting kernel information.");
#endif
}

//==============================================================================
/// Interaccion para el calculo de fuerzas.
/// Interaction for the stage 1 force computation.
//==============================================================================
template<TpKernel tker,TpFtMode ftmode,bool schwaiger> void Stage1Interaction_ForcesT
  (TpSlipCond tslipcond,TpCellMode cellmode,float viscob,float viscof,unsigned bsbound,unsigned bsfluid,unsigned np,unsigned npb,unsigned npbok,tuint3 ncells,const int2 *begincell,tuint3 cellmin
	,const unsigned *dcell,const double2 *posxy,const double *posz,float4 *velrhop,const word *code,const unsigned *idp,float3 *dwxcorrg,float3 *dwycorrg,float3 *dwzcorrg,const float *ftomassp,float3 *ace
	,bool simulate2d,float *divr,const double3 *mirrorPos,const unsigned *mirrorCell,float4 *mls,unsigned *row,float3 *SumFr,const float boundaryfs,const float freesurface,const tdouble3 PistonPos
	,const tdouble3 TankDim,float *tao,StKerInfo *kerinfo,JBlockSizeAuto *bsauto)
{
	const unsigned npf=np-npb;
	if(kerinfo)Stage1Interaction_ForcesT_KerInfoPre<tker,ftmode>(kerinfo);
  //else if(bsauto)Interaction_ForcesT_BsAuto<psimple,tker,ftmode,lamsps,tdelta,shift>(cellmode,viscob,viscof,bsbound,bsfluid,np,npb,npbok,ncells,begincell,cellmin,dcell,posxy,posz,pospress,velrhop,code,idp,ftomassp,tau,gradvel,viscdt,ar,ace,delta,tshifting,shiftpos,shiftdetect,simulate2d,bsauto);
  else if(npf){
		//-Executes particle interactions.
		const int hdiv=(cellmode==CELLMODE_H? 2: 1);
		const uint4 nc=make_uint4(ncells.x,ncells.y,ncells.z,ncells.x*ncells.y);
		const unsigned cellfluid=nc.w*nc.z+1;
		const int3 cellzero=make_int3(cellmin.x,cellmin.y,cellmin.z);
	
		dim3 sgridb=GetGridSize(npbok,bsbound);
		dim3 sgridf=GetGridSize(npf,bsfluid);

		if(npbok){
			if(simulate2d) KerMLSBoundary2D<tker> <<<sgridb,bsbound>>> (npbok,hdiv,nc,begincell,cellzero,posxy,posz,idp,mirrorPos,mirrorCell,mls);
			else					 KerMLSBoundary3D<tker> <<<sgridb,bsbound>>> (npbok,hdiv,nc,begincell,cellzero,posxy,posz,idp,mirrorPos,mirrorCell,mls);
			KerInteractionForcesBound<tker> <<<sgridb,bsbound>>> (simulate2d,tslipcond,npbok,hdiv,nc,begincell,cellzero,dcell,ftomassp,posxy,posz,velrhop,code,idp,divr,mirrorPos,mirrorCell,mls,row,PistonPos,TankDim,freesurface);
			KerInteractionCorrectBoundDivr<tker> <<<sgridb,bsbound>>> (npbok,hdiv,nc,begincell,cellzero,posxy,posz,idp,divr,mirrorPos,mirrorCell,boundaryfs);
		}
		//-Interaccion Fluid-Fluid & Fluid-Bound
		//-Interaction Fluid-Fluid & Fluid-Bound
		const unsigned matOrder=npb-npbok;

		KerInteractionForcesVisc<tker,ftmode> <<<sgridf,bsfluid>>> (npf,npb,hdiv,nc,cellfluid,viscob,viscof,begincell,cellzero,dcell,ftomassp,posxy,posz,velrhop,code,dwxcorrg,dwycorrg,dwzcorrg,ace,divr,row,matOrder,boundaryfs,freesurface);

		if(simulate2d) KerInverseKernelCor2D <<<sgridf,bsfluid>>> (npf,dwxcorrg,dwzcorrg);
		else					 KerInverseKernelCor3D <<<sgridf,bsfluid>>> (npf,dwxcorrg,dwycorrg,dwzcorrg);

		if(schwaiger) KerViscousSchwaiger<tker,ftmode> <<<sgridf,bsfluid>>> (simulate2d,npf,npb,hdiv,nc,cellfluid,viscob,viscof,begincell,cellzero,dcell,ftomassp,posxy,posz,velrhop,code,dwxcorrg,dwycorrg,dwzcorrg,ace,SumFr,divr,boundaryfs,freesurface,tao);
	}
}

//==============================================================================
void Stage1Interaction_ForcesPre(TpKernel tkernel,bool floating,bool usedem,TpSlipCond tslipcond,bool schwaiger,TpCellMode cellmode,float viscob,float viscof
	,unsigned bsbound,unsigned bsfluid,unsigned np,unsigned npb,unsigned npbok,tuint3 ncells,const int2 *begincell,tuint3 cellmin
	,const unsigned *dcell,const double2 *posxy,const double *posz,float4 *velrhop,const word *code,const unsigned *idp,float3 *dwxcorrg,float3 *dwycorrg
	,float3 *dwzcorrg,const float *ftomassp,float3 *ace,bool simulate2d,float *divr,const double3 *mirrorPos,const unsigned *mirrorCell,float4 *mls,unsigned *row
	,float3 *SumFr,const float boundaryfs,const float freesurface,const tdouble3 PistonPos,const tdouble3 TankDim,float *tao,StKerInfo *kerinfo
	,JBlockSizeAuto *bsauto)
{
	if(tkernel==KERNEL_Quintic){    const TpKernel tker=KERNEL_Quintic;
		if(!schwaiger){
			if(!floating)   Stage1Interaction_ForcesT<tker,FTMODE_None,false> (tslipcond,cellmode,viscob,viscof,bsbound,bsfluid,np,npb,npbok,ncells,begincell,cellmin,dcell,posxy,posz,velrhop,code,idp,dwxcorrg,dwycorrg,dwzcorrg,ftomassp,ace,simulate2d,divr,mirrorPos,mirrorCell,mls,row,NULL,boundaryfs,freesurface,PistonPos,TankDim,tao,kerinfo,bsauto);
			else if(!usedem)Stage1Interaction_ForcesT<tker,FTMODE_Sph,false>  (tslipcond,cellmode,viscob,viscof,bsbound,bsfluid,np,npb,npbok,ncells,begincell,cellmin,dcell,posxy,posz,velrhop,code,idp,dwxcorrg,dwycorrg,dwzcorrg,ftomassp,ace,simulate2d,divr,mirrorPos,mirrorCell,mls,row,NULL,boundaryfs,freesurface,PistonPos,TankDim,tao,kerinfo,bsauto);
			else            Stage1Interaction_ForcesT<tker,FTMODE_Dem,false>  (tslipcond,cellmode,viscob,viscof,bsbound,bsfluid,np,npb,npbok,ncells,begincell,cellmin,dcell,posxy,posz,velrhop,code,idp,dwxcorrg,dwycorrg,dwzcorrg,ftomassp,ace,simulate2d,divr,mirrorPos,mirrorCell,mls,row,NULL,boundaryfs,freesurface,PistonPos,TankDim,tao,kerinfo,bsauto);
		}else{
			if(!floating)   Stage1Interaction_ForcesT<tker,FTMODE_None,true> (tslipcond,cellmode,viscob,viscof,bsbound,bsfluid,np,npb,npbok,ncells,begincell,cellmin,dcell,posxy,posz,velrhop,code,idp,dwxcorrg,dwycorrg,dwzcorrg,ftomassp,ace,simulate2d,divr,mirrorPos,mirrorCell,mls,row,SumFr,boundaryfs,freesurface,PistonPos,TankDim,tao,kerinfo,bsauto);
			else if(!usedem)Stage1Interaction_ForcesT<tker,FTMODE_Sph,true>  (tslipcond,cellmode,viscob,viscof,bsbound,bsfluid,np,npb,npbok,ncells,begincell,cellmin,dcell,posxy,posz,velrhop,code,idp,dwxcorrg,dwycorrg,dwzcorrg,ftomassp,ace,simulate2d,divr,mirrorPos,mirrorCell,mls,row,SumFr,boundaryfs,freesurface,PistonPos,TankDim,tao,kerinfo,bsauto);
			else            Stage1Interaction_ForcesT<tker,FTMODE_Dem,true>  (tslipcond,cellmode,viscob,viscof,bsbound,bsfluid,np,npb,npbok,ncells,begincell,cellmin,dcell,posxy,posz,velrhop,code,idp,dwxcorrg,dwycorrg,dwzcorrg,ftomassp,ace,simulate2d,divr,mirrorPos,mirrorCell,mls,row,SumFr,boundaryfs,freesurface,PistonPos,TankDim,tao,kerinfo,bsauto);	
		}
	}
	else if(tkernel==KERNEL_Wendland){    const TpKernel tker=KERNEL_Wendland;
		if(!schwaiger){
			if(!floating)   Stage1Interaction_ForcesT<tker,FTMODE_None,false> (tslipcond,cellmode,viscob,viscof,bsbound,bsfluid,np,npb,npbok,ncells,begincell,cellmin,dcell,posxy,posz,velrhop,code,idp,dwxcorrg,dwycorrg,dwzcorrg,ftomassp,ace,simulate2d,divr,mirrorPos,mirrorCell,mls,row,NULL,boundaryfs,freesurface,PistonPos,TankDim,tao,kerinfo,bsauto);
			else if(!usedem)Stage1Interaction_ForcesT<tker,FTMODE_Sph,false>  (tslipcond,cellmode,viscob,viscof,bsbound,bsfluid,np,npb,npbok,ncells,begincell,cellmin,dcell,posxy,posz,velrhop,code,idp,dwxcorrg,dwycorrg,dwzcorrg,ftomassp,ace,simulate2d,divr,mirrorPos,mirrorCell,mls,row,NULL,boundaryfs,freesurface,PistonPos,TankDim,tao,kerinfo,bsauto);
			else            Stage1Interaction_ForcesT<tker,FTMODE_Dem,false>  (tslipcond,cellmode,viscob,viscof,bsbound,bsfluid,np,npb,npbok,ncells,begincell,cellmin,dcell,posxy,posz,velrhop,code,idp,dwxcorrg,dwycorrg,dwzcorrg,ftomassp,ace,simulate2d,divr,mirrorPos,mirrorCell,mls,row,NULL,boundaryfs,freesurface,PistonPos,TankDim,tao,kerinfo,bsauto);
		}else{
			if(!floating)   Stage1Interaction_ForcesT<tker,FTMODE_None,true> (tslipcond,cellmode,viscob,viscof,bsbound,bsfluid,np,npb,npbok,ncells,begincell,cellmin,dcell,posxy,posz,velrhop,code,idp,dwxcorrg,dwycorrg,dwzcorrg,ftomassp,ace,simulate2d,divr,mirrorPos,mirrorCell,mls,row,SumFr,boundaryfs,freesurface,PistonPos,TankDim,tao,kerinfo,bsauto);
			else if(!usedem)Stage1Interaction_ForcesT<tker,FTMODE_Sph,true>  (tslipcond,cellmode,viscob,viscof,bsbound,bsfluid,np,npb,npbok,ncells,begincell,cellmin,dcell,posxy,posz,velrhop,code,idp,dwxcorrg,dwycorrg,dwzcorrg,ftomassp,ace,simulate2d,divr,mirrorPos,mirrorCell,mls,row,SumFr,boundaryfs,freesurface,PistonPos,TankDim,tao,kerinfo,bsauto);
			else            Stage1Interaction_ForcesT<tker,FTMODE_Dem,true>  (tslipcond,cellmode,viscob,viscof,bsbound,bsfluid,np,npb,npbok,ncells,begincell,cellmin,dcell,posxy,posz,velrhop,code,idp,dwxcorrg,dwycorrg,dwzcorrg,ftomassp,ace,simulate2d,divr,mirrorPos,mirrorCell,mls,row,SumFr,boundaryfs,freesurface,PistonPos,TankDim,tao,kerinfo,bsauto);
		}
	}
}

//------------------------------------------------------------------------------
/// Realiza la interaccion de una particula con un conjunto de ellas. (Fluid/Float-Fluid/Float/Bound)
/// Interaction of a particle with a set of particles. (Fluid/Float-Fluid/Float/Bound)
//------------------------------------------------------------------------------
template<TpKernel tker,TpFtMode ftmode> __device__ void KerInteractionForcesPresGradCalcFF
  (const unsigned &pini,const unsigned &pfin,const float *ftomassp,const double2 *posxy,const double *posz
	,const float4 *velrhop,const word *code,float3 dwxcorrg,float3 dwycorrg,float3 dwzcorrg,float massp2,float ftmassp1
	,bool ftp1,const double3 posdp1,const float pressp1,float3 &acep1)
{
	const float volumep2=massp2/CTE.rhopzero; //Volume of particle j
  for(int p2=pini;p2<pfin;p2++){
    float drx,dry,drz;
		float pressp2=velrhop[p2].w;
    KerGetParticlesDr(p2,posxy,posz,posdp1,drx,dry,drz);
    float rr2=drx*drx+dry*dry+drz*drz;
    if(rr2<=CTE.fourh2 && rr2>=ALMOSTZERO){
			//-Wendland kernel.
			float frx,fry,frz;
			if(tker==KERNEL_Quintic) KerGetKernelQuintic(rr2,drx,dry,drz,frx,fry,frz);
			else if(tker==KERNEL_Wendland) KerGetKernelWendland(rr2,drx,dry,drz,frx,fry,frz);

			//-Obtiene masa de particula p2 en caso de existir floatings.
			//-Obtains mass of particle p2 if any floating bodies exist.
			//bool ftp2;         //-Indica si es floating. //-indicates if it is floating.
			//float ftmassp2;    //-Contiene masa de particula floating o massp2 si es bound o fluid. //-Contains mass of floating body or massf if fluid.
			/* if(USE_FLOATING){
				const word cod=code[p2];
				ftp2=(CODE_GetType(cod)==CODE_TYPE_FLOATING);
				ftmassp2=(ftp2? ftomassp[CODE_GetTypeValue(cod)]: massp2);
				if(ftp2 && (tdelta==DELTA_Dynamic || tdelta==DELTA_DynamicExt))deltap1=FLT_MAX;
				if(ftp2 && shift && tshifting==SHIFT_NoBound)shiftposp1.x=FLT_MAX; //-Con floatings anula shifting. //-Cancels shifting with floating bodies
				compute=!(USE_DEM && ftp1 && (boundp2 || ftp2)); //-Se desactiva cuando se usa DEM y es float-float o float-bound. //-Deactivated when DEM is used and is float-float or float-bound.
			}*/
			//===== Aceleration ===== 
			const float temp_x=frx*dwxcorrg.x+fry*dwycorrg.x+frz*dwzcorrg.x;
			const float temp_y=frx*dwxcorrg.y+fry*dwycorrg.y+frz*dwzcorrg.y;
			const float temp_z=frx*dwxcorrg.z+fry*dwycorrg.z+frz*dwzcorrg.z;
			const float temp=volumep2*(pressp2-pressp1);
			acep1.x+=temp*temp_x; acep1.y+=temp*temp_y; acep1.z+=temp*temp_z;
		}
  }
}

template<TpKernel tker,TpFtMode ftmode> __device__ void KerInteractionForcesPresGradCalcFB
  (const unsigned &pini,const unsigned &pfin,const float *ftomassp,const double2 *posxy,const double *posz
	,const float4 *velrhop,const word *code,float3 dwxcorrg,float3 dwycorrg,float3 dwzcorrg,float massp2,float ftmassp1
	,bool ftp1,const double3 posdp1,const float pressp1,float3 &acep1,unsigned &rowp1,float &nearestBound,const float *divr,const float boundaryfs)
{
	const float volumep2=massp2/CTE.rhopzero; //Volume of particle j
  for(int p2=pini;p2<pfin;p2++){
    float drx,dry,drz;
		float pressp2=velrhop[p2].w;
    KerGetParticlesDr(p2,posxy,posz,posdp1,drx,dry,drz);
    float rr2=drx*drx+dry*dry+drz*drz;
    if(rr2<=CTE.fourh2 && rr2>=ALMOSTZERO)if(divr[p2]>boundaryfs){
			//-Wendland kernel.
			float frx,fry,frz;
			if(tker==KERNEL_Quintic) KerGetKernelQuintic(rr2,drx,dry,drz,frx,fry,frz);
			else if(tker==KERNEL_Wendland) KerGetKernelWendland(rr2,drx,dry,drz,frx,fry,frz);

			//-Obtiene masa de particula p2 en caso de existir floatings.
			//-Obtains mass of particle p2 if any floating bodies exist.
			//bool ftp2;         //-Indica si es floating. //-indicates if it is floating.
			//float ftmassp2;    //-Contiene masa de particula floating o massp2 si es bound o fluid. //-Contains mass of floating body or massf if fluid.
			/* if(USE_FLOATING){
				const word cod=code[p2];
				ftp2=(CODE_GetType(cod)==CODE_TYPE_FLOATING);
				ftmassp2=(ftp2? ftomassp[CODE_GetTypeValue(cod)]: massp2);
				if(ftp2 && (tdelta==DELTA_Dynamic || tdelta==DELTA_DynamicExt))deltap1=FLT_MAX;
				if(ftp2 && shift && tshifting==SHIFT_NoBound)shiftposp1.x=FLT_MAX; //-Con floatings anula shifting. //-Cancels shifting with floating bodies
				compute=!(USE_DEM && ftp1 && (boundp2 || ftp2)); //-Se desactiva cuando se usa DEM y es float-float o float-bound. //-Deactivated when DEM is used and is float-float or float-bound.
			}*/
			//===== Aceleration ===== 
			const float temp_x=frx*dwxcorrg.x+fry*dwycorrg.x+frz*dwzcorrg.x;
			const float temp_y=frx*dwxcorrg.y+fry*dwycorrg.y+frz*dwzcorrg.y;
			const float temp_z=frx*dwxcorrg.z+fry*dwycorrg.z+frz*dwzcorrg.z;
			const float temp=volumep2*(pressp2-pressp1);
			acep1.x+=temp*temp_x; acep1.y+=temp*temp_y; acep1.z+=temp*temp_z;

			if(rr2<=nearestBound){
				nearestBound=rr2;
				rowp1=p2;
			}
    }
  }
}

//------------------------------------------------------------------------------
/// ES:
/// Realiza interaccion entre particulas. Fluid/Float-Fluid/Float or Fluid/Float-Bound
/// Incluye visco artificial/laminar y floatings normales/dem.
/// EN:
/// Interaction between particles. Fluid/Float-Fluid/Float or Fluid/Float-Bound.
/// Includes artificial/laminar viscosity and normal/DEM floating bodies.
//------------------------------------------------------------------------------
template<TpKernel tker,TpFtMode ftmode> __global__ void KerInteractionForcesPresGrad
  (unsigned npf,unsigned npb,int hdiv,uint4 nc,unsigned cellfluid,const int2 *begincell,int3 cellzero
	,const unsigned *dcell,const float *ftomassp,const double2 *posxy,const double *posz,const float4 *velrhop,const word *code
	,float3 *dwxcorrg,float3 *dwycorrg,float3 *dwzcorrg,float3 *ace,float *divr,unsigned *row,const float boundaryfs,const float freesurface)
{
  unsigned p=blockIdx.y*gridDim.x*blockDim.x + blockIdx.x*blockDim.x + threadIdx.x; //-Nº de la partícula //-NI of the particle
  if(p<npf){
    unsigned p1=p+npb;      //-Nº de particula. //-NI of particle
		const unsigned Correctp1=p;
    float3 acep1=make_float3(0,0,0);
		double3 dwxp1=make_double3(0,0,0); double3 dwyp1=make_double3(0,0,0); double3 dwzp1=make_double3(0,0,0);
		float nearestBound=float(CTE.dp*CTE.dp);
		unsigned rowp1=npb;
		//-Obtiene datos de particula p1 en caso de existir floatings.
	//-Obtains data of particle p1 in case there are floating bodies.
    bool ftp1;       //-Indica si es floating. //-Indicates if it is floating.
    float ftmassp1;  //-Contiene masa de particula floating o 1.0f si es fluid. //-Contains floating particle mass or 1.0f if it is fluid.
    if(USE_FLOATING){
      const word cod=code[p1];
      ftp1=(CODE_GetType(cod)==CODE_TYPE_FLOATING);
      ftmassp1=(ftp1? ftomassp[CODE_GetTypeValue(cod)]: 1.f);
      //if(ftp1 && (tdelta==DELTA_Dynamic || tdelta==DELTA_DynamicExt))deltap1=FLT_MAX;
      //if(ftp1 && shift)shiftposp1.x=FLT_MAX;  //-Para floatings no se calcula shifting. //-Shifting is not calculated for floating bodies.
    }

    //-Obtiene datos basicos de particula p1.
	//-Obtains basic data of particle p1.
    double3 posdp1;
    const float pressp1=velrhop[p1].w;
    KerGetParticleData(p1,posxy,posz,posdp1);
    //-Obtiene limites de interaccion
	//-Obtains interaction limits
    int cxini,cxfin,yini,yfin,zini,zfin;
    KerGetInteractionCells(dcell[p1],hdiv,nc,cellzero,cxini,cxfin,yini,yfin,zini,zfin);

    //-Interaccion con Fluidas.
	//-Interaction with fluids.
    for(int z=zini;z<zfin;z++){
      int zmod=(nc.w)*z+cellfluid; //-Le suma donde empiezan las celdas de fluido. //-The sum showing where fluid cells start
      for(int y=yini;y<yfin;y++){
        int ymod=zmod+nc.x*y;
        unsigned pini,pfin=0;
        for(int x=cxini;x<cxfin;x++){
          int2 cbeg=begincell[x+ymod];
          if(cbeg.y){
            if(!pfin)pini=cbeg.x;
            pfin=cbeg.y;
          }
        }
        if(pfin) KerInteractionForcesPresGradCalcFF<tker,ftmode> (pini,pfin,ftomassp,posxy,posz,velrhop,code,dwxcorrg[Correctp1],dwycorrg[Correctp1],dwzcorrg[Correctp1],CTE.massf,ftmassp1,ftp1,posdp1,pressp1,acep1);
			}
    }

    float3 r=ace[Correctp1]; 
		const float rho0=CTE.rhopzero; r.x+=(acep1.x/rho0); r.y+=(acep1.y/rho0); r.z+=(acep1.z/rho0);
    ace[Correctp1]=r;
		acep1=make_float3(0,0,0);  

    //-Interaccion con contorno.
	//-Interaction with boundaries.
    for(int z=zini;z<zfin;z++){
      int zmod=(nc.w)*z;
      for(int y=yini;y<yfin;y++){
        int ymod=zmod+nc.x*y;
        unsigned pini,pfin=0;
        for(int x=cxini;x<cxfin;x++){
          int2 cbeg=begincell[x+ymod];
          if(cbeg.y){
            if(!pfin)pini=cbeg.x;
            pfin=cbeg.y;
          }
        }
        if(pfin) KerInteractionForcesPresGradCalcFB<tker,ftmode> (pini,pfin,ftomassp,posxy,posz,velrhop,code,dwxcorrg[Correctp1],dwycorrg[Correctp1],dwzcorrg[Correctp1],CTE.massf,ftmassp1,ftp1,posdp1,pressp1,acep1,rowp1,nearestBound,divr,boundaryfs);
      }
    }
 
	  r.x+=(acep1.x/rho0); r.y+=(acep1.y/rho0); r.z+=(acep1.z/rho0);
    ace[Correctp1]=r;
		row[p1]=rowp1;
  }
}

//==============================================================================
/// Collects kernel information.
//==============================================================================
template<TpKernel tker,TpFtMode ftmode> void Stage3Interaction_ForcesT_KerInfoCor(StKerInfo *kerinfo)
{
	#if CUDART_VERSION >= 6050
	{
    typedef void (*fun_ptr)(unsigned,unsigned,int,uint4,unsigned,const int2*,int3,const unsigned*,const float*,const double2*,const double*
			,const float4*,const word*,float3*,float3*,float3*,float3*,float*,unsigned*,const float,const float);
    fun_ptr ptr=&KerInteractionForcesPresGrad<tker,ftmode>;
    int qblocksize=0,mingridsize=0;
    cudaOccupancyMaxPotentialBlockSize(&mingridsize,&qblocksize,(void*)ptr,0,0);
    struct cudaFuncAttributes attr;
    cudaFuncGetAttributes(&attr,(void*)ptr);
    kerinfo->forcesfluid_bs=qblocksize;
    kerinfo->forcesfluid_rg=attr.numRegs;
    kerinfo->forcesfluid_bsmax=attr.maxThreadsPerBlock;
    //printf(">> KerInteractionForcesFluid  blocksize:%u (%u)\n",qblocksize,0);
  }
  CheckErrorCuda("Error collecting kernel information.");
#endif
}

//==============================================================================
/// Interaccion para el calculo de fuerzas.
/// Interaction for the stage 3 force computation.
//==============================================================================
template<TpKernel tker,TpFtMode ftmode> void Stage3Interaction_ForcesT
  (TpCellMode cellmode,unsigned bsfluid
  ,unsigned np,unsigned npb,tuint3 ncells
  ,const int2 *begincell,tuint3 cellmin,const unsigned *dcell
  ,const double2 *posxy,const double *posz,float4 *velrhop,const word *code,float3 *dwxcorrg,float3 *dwycorrg,float3 *dwzcorrg
  ,const float *ftomassp,float3 *ace,float *divr,unsigned *row
	,const float boundaryfs,const float freesurface,StKerInfo *kerinfo,JBlockSizeAuto *bsauto)
{
	const unsigned npf=np-npb;
	if(kerinfo)Stage3Interaction_ForcesT_KerInfoCor<tker,ftmode>(kerinfo);
  //else if(bsauto)Interaction_ForcesT_BsAuto<psimple,tker,ftmode,lamsps,tdelta,shift>(cellmode,viscob,viscof,bsbound,bsfluid,np,npb,npbok,ncells,begincell,cellmin,dcell,posxy,posz,pospress,velrhop,code,idp,ftomassp,tau,gradvel,viscdt,ar,ace,delta,tshifting,shiftpos,shiftdetect,simulate2d,bsauto);
  else if(npf){
		//-Executes particle interactions.
		const int hdiv=(cellmode==CELLMODE_H? 2: 1);
		const uint4 nc=make_uint4(ncells.x,ncells.y,ncells.z,ncells.x*ncells.y);
		const unsigned cellfluid=nc.w*nc.z+1;
		const int3 cellzero=make_int3(cellmin.x,cellmin.y,cellmin.z);
		dim3 sgridf=GetGridSize(npf,bsfluid);
		KerInteractionForcesPresGrad<tker,ftmode> <<<sgridf,bsfluid>>> (npf,npb,hdiv,nc,cellfluid,begincell,cellzero,dcell,ftomassp,posxy,posz,velrhop,code,dwxcorrg,dwycorrg,dwzcorrg,ace,divr,row,boundaryfs,freesurface);
	}
}

void Stage3Interaction_ForcesCor(TpKernel tkernel,bool floating,bool usedem,TpCellMode cellmode,unsigned bsfluid,unsigned np,unsigned npb,tuint3 ncells,const int2 *begincell,tuint3 cellmin
	,const unsigned *dcell,const double2 *posxy,const double *posz,float4 *velrhop,const word *code,float3 *dwxcorrg,float3 *dwycorrg,float3 *dwzcorrg,const float *ftomassp,float3 *ace
	,float *divr,unsigned *row,const float boundaryfs,const float freesurface,StKerInfo *kerinfo,JBlockSizeAuto *bsauto)
{
	if(tkernel==KERNEL_Quintic){    const TpKernel tker=KERNEL_Quintic;
		if(!floating)   Stage3Interaction_ForcesT<tker,FTMODE_None> (cellmode,bsfluid,np,npb,ncells,begincell,cellmin,dcell,posxy,posz,velrhop,code,dwxcorrg,dwycorrg,dwzcorrg,ftomassp,ace,divr,row,boundaryfs,freesurface,kerinfo,bsauto);
		else if(!usedem)Stage3Interaction_ForcesT<tker,FTMODE_Sph>  (cellmode,bsfluid,np,npb,ncells,begincell,cellmin,dcell,posxy,posz,velrhop,code,dwxcorrg,dwycorrg,dwzcorrg,ftomassp,ace,divr,row,boundaryfs,freesurface,kerinfo,bsauto);
		else            Stage3Interaction_ForcesT<tker,FTMODE_Dem>  (cellmode,bsfluid,np,npb,ncells,begincell,cellmin,dcell,posxy,posz,velrhop,code,dwxcorrg,dwycorrg,dwzcorrg,ftomassp,ace,divr,row,boundaryfs,freesurface,kerinfo,bsauto);
	}
	else if(tkernel==KERNEL_Wendland){    const TpKernel tker=KERNEL_Wendland;
		if(!floating)   Stage3Interaction_ForcesT<tker,FTMODE_None> (cellmode,bsfluid,np,npb,ncells,begincell,cellmin,dcell,posxy,posz,velrhop,code,dwxcorrg,dwycorrg,dwzcorrg,ftomassp,ace,divr,row,boundaryfs,freesurface,kerinfo,bsauto);
		else if(!usedem)Stage3Interaction_ForcesT<tker,FTMODE_Sph>  (cellmode,bsfluid,np,npb,ncells,begincell,cellmin,dcell,posxy,posz,velrhop,code,dwxcorrg,dwycorrg,dwzcorrg,ftomassp,ace,divr,row,boundaryfs,freesurface,kerinfo,bsauto);
		else            Stage3Interaction_ForcesT<tker,FTMODE_Dem>  (cellmode,bsfluid,np,npb,ncells,begincell,cellmin,dcell,posxy,posz,velrhop,code,dwxcorrg,dwycorrg,dwzcorrg,ftomassp,ace,divr,row,boundaryfs,freesurface,kerinfo,bsauto);
	}
}

/*//##############################################################################
//# Kernels para interaccion DEM.
//# Kernels for DEM interaction
//##########################################.####################################
//------------------------------------------------------------------------------
/// Realiza la interaccion DEM de una particula con un conjunto de ellas. (Float-Float/Bound)
/// DEM interaction of a particle with a set of particles (Float-Float/Bound).
//------------------------------------------------------------------------------
template<bool psimple> __device__ void KerInteractionForcesDemBox 
  (bool boundp2,const unsigned &pini,const unsigned &pfin
  ,const float4 *demdata,float dtforce
  ,const double2 *posxy,const double *posz,const float4 *pospress,const float4 *velrhop,const word *code,const unsigned *idp
  ,double3 posdp1,float3 posp1,float3 velp1,word tavp1,float masstotp1,float taup1,float kfricp1,float restitup1
  ,float3 &acep1,float &demdtp1)
{
  for(int p2=pini;p2<pfin;p2++){
    const word codep2=code[p2];
    if(CODE_GetType(codep2)!=CODE_TYPE_FLUID && tavp1!=CODE_GetTypeAndValue(codep2)){
      float drx,dry,drz;
      KerGetParticlesDr<psimple> (p2,posxy,posz,pospress,posdp1,posp1,drx,dry,drz);
      const float rr2=drx*drx+dry*dry+drz*drz;
      const float rad=sqrt(rr2);

      //-Calcula valor maximo de demdt.
	  //-Computes maximum value of demdt.
      float4 demdatap2=demdata[CODE_GetTypeAndValue(codep2)];
[...]
{
  unsigned p1=blockIdx.y*gridDim.x*blockDim.x + blockIdx.x*blockDim.x + threadIdx.x; //-Nº de la partícula //-NI of particle.
  if(p1<n){
		//-Carga datos de particula p1.
		//-Loads particle p1 data.
    double3 posdp1;
    KerGetParticleData(p1,posxy,posz,posdp1);
		float divrp1=0;
		const float volume=CTE.massf/CTE.rhopzero;
		const double3 posmp1=make_double3(mirrorPos[p1].x,mirrorPos[p1].y,mirrorPos[p1].z);
			
		int cxini,cxfin,yini,yfin,zini,zfin;
		KerGetInteractionCells(mirrorCell[p1],hdiv,nc,cellzero,cxini,cxfin,yini,yfin,zini,zfin);
				
		for(int z=zini;z<zfin;z++){
			int zmod=(nc.w)*z+(nc.w*nc.z+1);//-Le suma Nct+1 que es la primera celda de fluido. //-Adds Nct + 1 which is the first cell fluid.	
			for(int y=yini;y<yfin;y++){
				int ymod=zmod+nc.x*y;
				unsigned pini,pfin=0;
				for(int x=cxini;x<cxfin;x++){
					int2 cbeg=begincell[x+ymod];
					if(cbeg.y){
						if(!pfin)pini=cbeg.x;
						pfin=cbeg.y;
					}
				}
				if(pfin) KerCalculateMirrorDivr<tker> (pini,pfin,posxy,posz,volume,posmp1,divrp1);
			}
		}

		divr[p1]+=divrp1;
		divrp1=0;

		for(int z=zini;z<zfin;z++){
			int zmod=(nc.w)*z;//-Le suma Nct+1 que es la primera celda de fluido. //-Adds Nct + 1 which is the first cell fluid.	
			for(int y=yini;y<yfin;y++){
				int ymod=zmod+nc.x*y;
				unsigned pini,pfin=0;
				for(int x=cxini;x<cxfin;x++){
					int2 cbeg=begincell[x+ymod];
					if(cbeg.y){
						if(!pfin)pini=cbeg.x;
						pfin=cbeg.y;
					}
				}
				if(pfin) KerCalculateMirrorDivr<tker> (pini,pfin,posxy,posz,volume,posmp1,divrp1);
			}
		}

		divr[p1]+=divrp1;
	}
}

void Interaction_Shifting
  (TpKernel tkernel,bool HydroCorr,bool simulate2d,bool floating,bool usedem,TpCellMode cellmode,unsigned bsfluid,unsigned bsbound,unsigned np,unsigned npb,unsigned npbok
	,tuint3 ncells,const int2 *begincell,tuint3 cellmin,const unsigned *dcell,const double2 *posxy,const double *posz,const word *code,const float *ftomassp,float3 *shiftpos
	,float *divr,const float tensilen,const float tensiler,const float boundaryfs,const unsigned *idp,const double3 *mirrorPos,const unsigned *mirrorCell,float3 *dwxcorrg
	,float3 *dwycorrg,float3 *dwzcorrg,float4 *mls,unsigned *row,const tdouble3 PistonPos,const tdouble3 TankDim,float3 *normal,float3 *smoothNormal)
{
  const unsigned npf=np-npb;
  const int hdiv=(cellmode==CELLMODE_H? 2: 1);
  const uint4 nc=make_uint4(ncells.x,ncells.y,ncells.z,ncells.x*ncells.y);
  const unsigned cellfluid=nc.w*nc.z+1;
  const int3 cellzero=make_int3(cellmin.x,cellmin.y,cellmin.z);
  //-Interaccion Fluid-Fluid & Fluid-Bound
  //-Interaction Fluid-Fluid & Fluid-Bound
  if(npf){
    dim3 sgridf=GetGridSize(npf,bsfluid);
		dim3 sgridb=GetGridSize(npb,bsbound);

		if(tkernel==KERNEL_Quintic){    const TpKernel tker=KERNEL_Quintic;
			if(npbok){
				if(simulate2d) KerMLSBoundary2D<tker> <<<sgridb,bsbound>>> (npbok,hdiv,nc,begincell,cellzero,posxy,posz,idp,mirrorPos,mirrorCell,mls);
				else					 KerMLSBoundary3D<tker> <<<sgridb,bsbound>>> (npbok,hdiv,nc,begincell,cellzero,posxy,posz,idp,mirrorPos,mirrorCell,mls);
				KerInteractionForcesBoundDivr<tker> <<<sgridb,bsbound>>> (npbok,hdiv,nc,begincell,cellzero,ftomassp,posxy,posz,idp,divr,mirrorPos,mirrorCell);
				KerInteractionCorrectBoundDivr<tker> <<<sgridb,bsbound>>> (npbok,hdiv,nc,begincell,cellzero,posxy,posz,idp,divr,mirrorPos,mirrorCell,boundaryfs);
			}

			if(HydroCorr){
				if(!floating)   KerInteractionForcesShifting<tker,FTMODE_None,true> <<<sgridf,bsfluid>>> (npf,npb,hdiv,nc,cellfluid,begincell,cellzero,dcell,ftomassp,posxy,posz,code,shiftpos,divr,tensilen,tensiler,boundaryfs,dwxcorrg,dwycorrg,dwzcorrg,normal,row);
				else if(!usedem)KerInteractionForcesShifting<tker,FTMODE_Sph,true> <<<sgridf,bsfluid>>> (npf,npb,hdiv,nc,cellfluid,begincell,cellzero,dcell,ftomassp,posxy,posz,code,shiftpos,divr,tensilen,tensiler,boundaryfs,dwxcorrg,dwycorrg,dwzcorrg,normal,row);
				else            KerInteractionForcesShifting<tker,FTMODE_Dem,true> <<<sgridf,bsfluid>>> (npf,npb,hdiv,nc,cellfluid,begincell,cellzero,dcell,ftomassp,posxy,posz,code,shiftpos,divr,tensilen,tensiler,boundaryfs,dwxcorrg,dwycorrg,dwzcorrg,normal,row);
			
				if(simulate2d) KerInverseKernelCor2D <<<sgridf,bsfluid>>> (npf,dwxcorrg,dwzcorrg);
				else					 KerInverseKernelCor3D <<<sgridf,bsfluid>>> (npf,dwxcorrg,dwycorrg,dwzcorrg);
			}
			else{
				if(!floating)   KerInteractionForcesShifting<tker,FTMODE_None,false> <<<sgridf,bsfluid>>> (npf,npb,hdiv,nc,cellfluid,begincell,cellzero,dcell,ftomassp,posxy,posz,code,shiftpos,divr,tensilen,tensiler,boundaryfs,dwxcorrg,dwycorrg,dwzcorrg,normal,row);
				else if(!usedem)KerInteractionForcesShifting<tker,FTMODE_Sph,false> <<<sgridf,bsfluid>>> (npf,npb,hdiv,nc,cellfluid,begincell,cellzero,dcell,ftomassp,posxy,posz,code,shiftpos,divr,tensilen,tensiler,boundaryfs,dwxcorrg,dwycorrg,dwzcorrg,normal,row);
				else            KerInteractionForcesShifting<tker,FTMODE_Dem,false> <<<sgridf,bsfluid>>> (npf,npb,hdiv,nc,cellfluid,begincell,cellzero,dcell,ftomassp,posxy,posz,code,shiftpos,divr,tensilen,tensiler,boundaryfs,dwxcorrg,dwycorrg,dwzcorrg,normal,row);
			}

			if(npbok){
				if(simulate2d) KerBoundaryNormal<tker,true> <<<sgridb,bsbound>>>(npf,npbok,hdiv,nc,begincell,cellzero,dcell,posxy,posz,idp,mirrorPos,mirrorCell,mls,normal,PistonPos,TankDim);
				else KerBoundaryNormal<tker,false> <<<sgridb,bsbound>>>(npf,npbok,hdiv,nc,begincell,cellzero,dcell,posxy,posz,idp,mirrorPos,mirrorCell,mls,normal,PistonPos,TankDim);
			}

			KerSmoothNormals<tker> <<<sgridf,bsfluid>>> (npf,npb,hdiv,nc,cellfluid,begincell,cellzero,dcell,posxy,posz,divr,boundaryfs,normal,smoothNormal);			
		}
		else if(tkernel==KERNEL_Wendland){    const TpKernel tker=KERNEL_Wendland;
			if(npbok){
				if(simulate2d) KerMLSBoundary2D<tker> <<<sgridb,bsbound>>> (npbok,hdiv,nc,begincell,cellzero,posxy,posz,idp,mirrorPos,mirrorCell,mls);
				else					 KerMLSBoundary3D<tker> <<<sgridb,bsbound>>> (npbok,hdiv,nc,begincell,cellzero,posxy,posz,idp,mirrorPos,mirrorCell,mls);
				KerInteractionForcesBoundDivr<tker> <<<sgridb,bsbound>>> (npbok,hdiv,nc,begincell,cellzero,ftomassp,posxy,posz,idp,divr,mirrorPos,mirrorCell);
				KerInteractionCorrectBoundDivr<tker> <<<sgridb,bsbound>>> (npbok,hdiv,nc,begincell,cellzero,posxy,posz,idp,divr,mirrorPos,mirrorCell,boundaryfs);
			}

			if(HydroCorr){
				if(!floating)   KerInteractionForcesShifting<tker,FTMODE_None,true> <<<sgridf,bsfluid>>> (npf,npb,hdiv,nc,cellfluid,begincell,cellzero,dcell,ftomassp,posxy,posz,code,shiftpos,divr,tensilen,tensiler,boundaryfs,dwxcorrg,dwycorrg,dwzcorrg,normal,row);
				else if(!usedem)KerInteractionForcesShifting<tker,FTMODE_Sph,true> <<<sgridf,bsfluid>>> (npf,npb,hdiv,nc,cellfluid,begincell,cellzero,dcell,ftomassp,posxy,posz,code,shiftpos,divr,tensilen,tensiler,boundaryfs,dwxcorrg,dwycorrg,dwzcorrg,normal,row);
				else            KerInteractionForcesShifting<tker,FTMODE_Dem,true> <<<sgridf,bsfluid>>> (npf,npb,hdiv,nc,cellfluid,begincell,cellzero,dcell,ftomassp,posxy,posz,code,shiftpos,divr,tensilen,tensiler,boundaryfs,dwxcorrg,dwycorrg,dwzcorrg,normal,row);
			
				if(simulate2d) KerInverseKernelCor2D <<<sgridf,bsfluid>>> (npf,dwxcorrg,dwzcorrg);
				else					 KerInverseKernelCor3D <<<sgridf,bsfluid>>> (npf,dwxcorrg,dwycorrg,dwzcorrg);
			}
			else{
				if(!floating)   KerInteractionForcesShifting<tker,FTMODE_None,false> <<<sgridf,bsfluid>>> (npf,npb,hdiv,nc,cellfluid,begincell,cellzero,dcell,ftomassp,posxy,posz,code,shiftpos,divr,tensilen,tensiler,boundaryfs,dwxcorrg,dwycorrg,dwzcorrg,normal,row);
				else if(!usedem)KerInteractionForcesShifting<tker,FTMODE_Sph,false> <<<sgridf,bsfluid>>> (npf,npb,hdiv,nc,cellfluid,begincell,cellzero,dcell,ftomassp,posxy,posz,code,shiftpos,divr,tensilen,tensiler,boundaryfs,dwxcorrg,dwycorrg,dwzcorrg,normal,row);
				else            KerInteractionForcesShifting<tker,FTMODE_Dem,false> <<<sgridf,bsfluid>>> (npf,npb,hdiv,nc,cellfluid,begincell,cellzero,dcell,ftomassp,posxy,posz,code,shiftpos,divr,tensilen,tensiler,boundaryfs,dwxcorrg,dwycorrg,dwzcorrg,normal,row);
			}

			if(npbok){
				if(simulate2d) KerBoundaryNormal<tker,true> <<<sgridb,bsbound>>>(npf,npbok,hdiv,nc,begincell,cellzero,dcell,posxy,posz,idp,mirrorPos,mirrorCell,mls,normal,PistonPos,TankDim);
				else KerBoundaryNormal<tker,false> <<<sgridb,bsbound>>>(npf,npbok,hdiv,nc,begincell,cellzero,dcell,posxy,posz,idp,mirrorPos,mirrorCell,mls,normal,PistonPos,TankDim);
			}

			KerSmoothNormals<tker> <<<sgridf,bsfluid>>> (npf,npb,hdiv,nc,cellfluid,begincell,cellzero,dcell,posxy,posz,divr,boundaryfs,normal,smoothNormal);
		}
	}
}

template<bool floating> __global__ void KerComputeShift
  (unsigned npf,unsigned npb,const float3 *shiftpos,word *code,double2 *movxy,double *movz)
{
  unsigned p=blockIdx.y*gridDim.x*blockDim.x + blockIdx.x*blockDim.x + threadIdx.x; //-Nº de la partícula //-NI of the particle.
  if(p<npf){
    unsigned p1=p+npb;
		const unsigned Correctp1=p;
    const float3 rshiftpos=shiftpos[Correctp1];
    if(!floating || CODE_GetType(code[p1])==CODE_TYPE_FLUID){//-Particulas: Fluid //-Particles: Fluid
      double dx=double(rshiftpos.x);
      double dy=double(rshiftpos.y);
      double dz=double(rshiftpos.z);
      movxy[p1]=make_double2(dx,dy);
      movz[p1]=dz;
    }
  }
}

void ComputeShift(bool floating,const unsigned bsfluid,unsigned np,unsigned npb,const float3 *shiftpos
  ,word *code,double2 *movxy,double *movz)
{
  const unsigned npf=np-npb;
  if(npf){
    dim3 sgridf=GetGridSize(npf,bsfluid);
    if(floating)KerComputeShift<true>  <<<sgridf,bsfluid>>> (npf,npb,shiftpos,code,movxy,movz);
    else        KerComputeShift<false> <<<sgridf,bsfluid>>> (npf,npb,shiftpos,code,movxy,movz);
  }
}

template<TpKernel tker> __device__ void KerCalcShiftVelocity
  (const bool fluid,const unsigned &pini,const unsigned &pfin,const double2 *posxy,const double *posz,double3 posdp1
	,const float3 velp1,const float4 *velrhop,const float3 dwx,const float3 dwy,const float3 dwz,const float massp2,const float RhopZero,const word *code,const unsigned *idp
	,const float *divr,const float boundaryfs,float3 &gradvx,float3 &gradvy,float3 &gradvz)
{
	float volumep2=massp2/RhopZero; //Volume of particle j
  for(int p2=pini;p2<pfin;p2++)if(!(!fluid&&divr[p2]<boundaryfs)){
    float drx,dry,drz;
    KerGetParticlesDr(p2,posxy,posz,posdp1,drx,dry,drz);
    float rr2=drx*drx+dry*dry+drz*drz;
    if(rr2<=CTE.fourh2 && rr2>=ALMOSTZERO){
      //-Wendland kernel.
      float frx,fry,frz;
      if(tker==KERNEL_Quintic) KerGetKernelQuintic(rr2,drx,dry,drz,frx,fry,frz);
			else if(tker==KERNEL_Wendland) KerGetKernelWendland(rr2,drx,dry,drz,frx,fry,frz);

			const float temp_x=frx*dwx.x+fry*dwy.x+frz*dwz.x;
			const float temp_y=frx*dwx.y+fry*dwy.y+frz*dwz.y;
			const float temp_z=frx*dwx.z+fry*dwy.z+frz*dwz.z;

			float dvx=velp1.x-velrhop[p2].x, dvy=velp1.y-velrhop[p2].y, dvz=velp1.z-velrhop[p2].z;
			gradvx.x+=temp_x*dvx*volumep2; gradvx.y+=temp_y*dvx*volumep2; gradvx.z+=temp_z*dvx*volumep2;
			gradvy.x+=temp_x*dvy*volumep2; gradvy.y+=temp_y*dvy*volumep2; gradvy.z+=temp_z*dvy*volumep2;
			gradvz.x+=temp_x*dvz*volumep2; gradvz.y+=temp_y*dvz*volumep2; gradvz.z+=temp_z*dvz*volumep2;   
		}
  }
}

template<TpKernel tker> __global__ void KerFindShiftVelocity
  (unsigned n,unsigned pinit,int hdiv,uint4 nc,unsigned cellfluid,const int2 *begincell,int3 cellzero,const unsigned *dcell
  ,const double2 *posxy,const double *posz,float4 *velrhop,const float3 *dwxCorr,const float3 *dwyCorr,const float3 *dwzCorr,const float *divr,const word *code
  ,const unsigned *idp,const float boundaryfs,float3 *shiftpos,float3 *shiftvel)
{
  unsigned p=blockIdx.y*gridDim.x*blockDim.x + blockIdx.x*blockDim.x + threadIdx.x; //-Nº de la partícula //-NI of the particle
  if(p<n){
    unsigned p1=p+pinit;      //-Nº de particula. //-NI of particle
		const unsigned Correctp1=p;
   
		//-Obtiene datos basicos de particula p1.
  	//-Obtains basic data of particle p1.
    double3 posdp1=make_double3(posxy[p1].x,posxy[p1].y,posz[p1]);
		float3 velp1=make_float3(velrhop[p1].x,velrhop[p1].y,velrhop[p1].z);
		float3 shift=make_float3(shiftpos[Correctp1].x,shiftpos[Correctp1].y,shiftpos[Correctp1].z);
		float3 gradvx=make_float3(0,0,0);
		float3 gradvy=make_float3(0,0,0);
		float3 gradvz=make_float3(0,0,0);
    //-Obtiene limites de interaccion
	  //-Obtains interaction limits
    int cxini,cxfin,yini,yfin,zini,zfin;
    KerGetInteractionCells(dcell[p1],hdiv,nc,cellzero,cxini,cxfin,yini,yfin,zini,zfin);
        
    for(int fluid=0;fluid<=1;fluid++){
			for(int z=zini;z<zfin;z++){
				int zmod=(nc.w)*z+(cellfluid*fluid); //-Le suma donde empiezan las celdas de fluido. //-The sum showing where fluid cells start
				for(int y=yini;y<yfin;y++){
					int ymod=zmod+nc.x*y;
					unsigned pini,pfin=0;
					for(int x=cxini;x<cxfin;x++){
						int2 cbeg=begincell[x+ymod];
						if(cbeg.y){
							if(!pfin)pini=cbeg.x;
							pfin=cbeg.y;
						}
					}
					if(pfin){
						KerCalcShiftVelocity<tker> (fluid,pini,pfin,posxy,posz,posdp1,velp1,velrhop,dwxCorr[Correctp1],dwyCorr[Correctp1],dwzCorr[Correctp1],CTE.massf,CTE.rhopzero,code,idp,divr,boundaryfs,gradvx,gradvy,gradvz);
					}
				}
			}
		}

		shiftvel[Correctp1].x=velp1.x+gradvx.x*shift.x+gradvx.y*shift.y+gradvx.z*shift.z;
		shiftvel[Correctp1].y=velp1.y+gradvy.x*shift.x+gradvy.y*shift.y+gradvy.z*shift.z;
		shiftvel[Correctp1].z=velp1.z+gradvz.x*shift.x+gradvz.y*shift.y+gradvz.z*shift.z;
  }
}

__global__ void KerCorrectShiftVelocity
  (unsigned n,unsigned pinit,float4 *velrhop,float3 *shiftvel)
{
  unsigned p=blockIdx.y*gridDim.x*blockDim.x + blockIdx.x*blockDim.x + threadIdx.x; //-Nº de la partícula //-NI of the particle
  if(p<n){
    unsigned p1=p+pinit;      //-Nº de particula. //-NI of particle
		const unsigned Correctp1=p;
		velrhop[p1].x=shiftvel[Correctp1].x;
		velrhop[p1].y=shiftvel[Correctp1].y;
		velrhop[p1].z=shiftvel[Correctp1].z;
  }
}

void CorrectShiftVelocity(TpKernel tkernel,TpCellMode cellmode,const unsigned bsbound,const unsigned bsfluid,unsigned np,unsigned npb,unsigned npbok,tuint3 ncells,const int2 *begincell,tuint3 cellmin
	,const unsigned *dcell,const double2 *posxy,const double *posz,float4 *velrhop,const float3 *dwxCorr,const float3 *dwyCorr,const float3 *dwzCorr
  ,const unsigned *idp,const float *divr,const word *code,const float boundaryfs,float3 *shiftpos,float3 *shiftvel){
  const unsigned npf=np-npb;
  const int hdiv=(cellmode==CELLMODE_H? 2: 1);
  const uint4 nc=make_uint4(ncells.x,ncells.y,ncells.z,ncells.x*ncells.y);
  const unsigned cellfluid=nc.w*nc.z+1;
  const int3 cellzero=make_int3(cellmin.x,cellmin.y,cellmin.z);
  //-Interaccion Fluid-Fluid & Fluid-Bound
  //-Interaction Fluid-Fluid & Fluid-Bound
  if(npf){
    dim3 sgridf=GetGridSize(npf,bsfluid);

		if(tkernel==KERNEL_Quintic){    const TpKernel tker=KERNEL_Quintic;
			KerFindShiftVelocity<tker> <<<sgridf,bsfluid>>> (npf,npb,hdiv,nc,cellfluid,begincell,cellzero,dcell,posxy,posz,velrhop,dwxCorr,dwyCorr,dwzCorr,divr,code,idp,boundaryfs,shiftpos,shiftvel);
		}
		else if(tkernel==KERNEL_Wendland){    const TpKernel tker=KERNEL_Wendland;
			KerFindShiftVelocity<tker> <<<sgridf,bsfluid>>> (npf,npb,hdiv,nc,cellfluid,begincell,cellzero,dcell,posxy,posz,velrhop,dwxCorr,dwyCorr,dwzCorr,divr,code,idp,boundaryfs,shiftpos,shiftvel);
		}

		KerCorrectShiftVelocity <<<sgridf,bsfluid>>> (npf,npb,velrhop,shiftvel);
	}
}

__global__ void KerCalcSpectrum
  (const unsigned nspec,double *fn,double *Sp,double *Ak,double *Stroke2,double *apm,const double f1,const double df,const double fp,const double D,const double gamma,const tfloat3 gravity)
{
	unsigned p=blockIdx.y*gridDim.x*blockDim.x + blockIdx.x*blockDim.x + threadIdx.x; //-Nº de la partícula //-NI of the particle
  if(p<nspec){
		const double fnp=f1+df*double(p)+df*0.5;
		const double ff=fp/fnp;
		double sig=(fnp>fp?0.09:0.07);
		double rr=(fnp-fp)/(fp*sig);
		rr=rr*rr;
		rr=exp(-0.5*rr);
		const double ff4=pow(ff,4.0);
		double Spp=ff*ff4*exp(-1.25*ff4)*pow(gamma,rr);
		const double Omega=2.0*PI*fnp;
		double k=Omega*Omega/abs(gravity.z);
		const double temp=k;
		for(unsigned nn=0;nn<nspec;nn++) k=temp/tanh(k*D);
		Ak[p]=k;
		fn[p]=fnp;
		Sp[p]=Spp;
	}
}

__global__ void KerFocussedSum
  (const unsigned nspec,double *FocussedSum,double *Sp,const double df)
{
	unsigned p=blockIdx.y*gridDim.x*blockDim.x + blockIdx.x*blockDim.x + threadIdx.x; //-Nº de la partícula //-NI of the particle
  if(p<1){
		double temp=0;
		for(unsigned n=0;n<nspec;n++) temp+=Sp[n]*df;
		FocussedSum[0]=temp;
	}
}

__global__ void KerStroke
  (const unsigned nspec,const double *Sp,const double AN,double *Ak,double *Stroke2,double *apm,const double df,const double *FocussedSum,const double D)
{
	unsigned p=blockIdx.y*gridDim.x*blockDim.x + blockIdx.x*blockDim.x + threadIdx.x; //-Nº de la partícula //-NI of the particle
  if(p<nspec){
		const double apmp=AN*Sp[p]*df/FocussedSum[0];
		const double Ak2D=2.0*Ak[p]*D;
		double stroke2=0.5*(sinh(Ak2D)+Ak2D);
		stroke2=stroke2/(cosh(Ak2D)-1.0);
		Stroke2[p]=apmp*stroke2;
		apm[p]=apmp;
	}
}

void CalculateSpectrum(double *fn,double *Sp,double *Ak,double *Stroke2,double *apm,double *FocussedSum,const unsigned nspec,const double f1,const double df,const double fp,const double D,const double gamma,tfloat3 gravity,const double AN){
	dim3 grid=GetGridSize(nspec,SPHBSIZE);
	KerCalcSpectrum<<<grid,SPHBSIZE>>>(nspec,fn,Sp,Ak,Stroke2,apm,f1,df,fp,D,gamma,gravity);
	KerFocussedSum<<<1,1>>>(nspec,FocussedSum,Sp,df);
	KerStroke<<<grid,SPHBSIZE>>>(nspec,Sp,AN,Ak,Stroke2,apm,df,FocussedSum,D);
}

__global__ void KerAkToPhi
  (const unsigned nspec,const double *fn,double *Ak,const double TFocus,const double focalpoint)
{
	unsigned p=blockIdx.y*gridDim.x*blockDim.x + blockIdx.x*blockDim.x + threadIdx.x; //-Nº de la partícula //-NI of the particle
  if(p<nspec){
		const double Omega=2.0*PI*fn[p];
		const double phi=Omega*TFocus-Ak[p]*focalpoint;
		Ak[p]=phi;
	}
}

void AkToPhi(const unsigned nspec,const double *fn,double *Ak,const double TFocus,const double focalpoint){
	dim3 grid=GetGridSize(nspec,SPHBSIZE);
	KerAkToPhi<<<grid,SPHBSIZE>>>(nspec,fn,Ak,TFocus,focalpoint);
}

__global__ void KerFocussedVel
  (const unsigned nspec,double *FocussedSum,const double *Stroke2,const double *fn,const double T,const double *Ak)
{
	unsigned p=blockIdx.y*gridDim.x*blockDim.x + blockIdx.x*blockDim.x + threadIdx.x; //-Nº de la partícula //-NI of the particle
  if(p<1){
		double temp=0;
		for(unsigned n=0;n<nspec;n++){
			const double Omega=2.0*PI*fn[n];
			temp+=Stroke2[n]*Omega*sin(-Omega*T+Ak[n]);
		}
		FocussedSum[0]=temp;
	}
}

double FocussedVel(const unsigned nspec,double *FocussedSum,const double *Stroke2,const double *fn,const double T,const double *Ak){
	dim3 grid=GetGridSize(nspec,SPHBSIZE);
	KerFocussedVel<<<1,1>>>(nspec,FocussedSum,Stroke2,fn,T,Ak);
	double *velcpu=new double[1]; cudaMemcpy(velcpu,FocussedSum,sizeof(double),cudaMemcpyDeviceToHost);
	return velcpu[0];
}

__global__ void KerBoundaryNormals
  (const unsigned npb,const unsigned *id,const double2 *posxy,const double *posz,const double3 *mirrorPos,float3 *normal)
{
	unsigned p=blockIdx.y*gridDim.x*blockDim.x + blockIdx.x*blockDim.x + threadIdx.x; //-Nº de la partícula //-NI of the particle
  if(p<npb){
		const double3 posp1=make_double3(posxy[p].x,posxy[p].y,posz[p]);
		const double3 mposp1=mirrorPos[p];
		normal[p].x=mposp1.x-posp1.x;
		normal[p].y=mposp1.y-posp1.y;
		normal[p].z=mposp1.z-posp1.z;

		double temp=normal[p].x*normal[p].x+normal[p].y*normal[p].y+normal[p].z*normal[p].z;
		if(temp){
			temp=sqrt(temp);
			normal[p].x=normal[p].x/temp;
			normal[p].y=normal[p].y/temp;
			normal[p].z=normal[p].z/temp;
		}
	}
}

void BoundaryNormals(const unsigned bsbound,const unsigned npb,const unsigned *id,const double2 *posxy,const double *posz,const double3 *mirrorPos,float3 *normal){
	dim3 grid=GetGridSize(npb,bsbound);
	KerBoundaryNormals<<<grid,bsbound>>>(npb,id,posxy,posz,mirrorPos,normal);
}
}